geometry optimzed in LAMMPS
_audit_creation_date              2020-11-30 
_audit_creation_method            'lammps2cif' 
_symmetry_space_group_name_H-M    'P1' 
_symmetry_Int_Tables_number       1 
_symmetry_cell_setting            triclinic 
loop_ 
_symmetry_equiv_pos_as_xyz 
  x,y,z 
_cell_length_a                    35.239686060523155 
_cell_length_b                    35.21086461106199 
_cell_length_c                    35.34081669795425 
_cell_angle_alpha                 90.26493576252102 
_cell_angle_beta                  90.26525967919686 
_cell_angle_gamma                 89.92083046533469 
loop_ 
_atom_site_label 
_atom_site_type_symbol 
_atom_site_fract_x 
_atom_site_fract_y 
_atom_site_fract_z 
_atom_site_charge 
In1        In  0.80095755  0.78230605  0.89904005     1.36870
C2          C  0.84528180  0.80019006  0.84146555     0.77360
O3          O  0.81079402  0.72105892  0.88344323    -0.61080
O4          O  0.75425455  0.73974614  0.89412138    -0.51990
C5          C  0.81186154  0.78255195  0.97345717     0.70030
O6          O  0.83813674  0.77197732  0.95144391    -0.46850
C7          C  0.76096561  0.84418063  0.88347911     0.74730
O8          O  0.85433987  0.80835954  0.87524435    -0.58710
O9          O  0.74919699  0.81121530  0.87552756    -0.48800
O10         O  0.81652657  0.77940970  0.83799405    -0.55140
C11         C  0.77579817  0.71339382  0.88278835     0.84910
O12         O  0.78133220  0.79155736  0.95727912    -0.57040
O13         O  0.79147236  0.84529418  0.90212574    -0.60330
In14       In  0.72745962  0.93789248  0.82500375     1.36870
C15         C  0.74390922  0.87834582  0.86728318     0.77360
O16         O  0.66566071  0.92874023  0.83765034    -0.61080
O17         O  0.68228997  0.93599826  0.78024065    -0.51990
C18         C  0.73446450  0.01171291  0.83592679     0.70030
O19         O  0.72345768  0.99057109  0.86261475    -0.46850
C20         C  0.78773387  0.91998291  0.78432429     0.74730
O21         O  0.75243431  0.91170136  0.87775939    -0.58710
O22         O  0.75433614  0.91314722  0.77299440    -0.48800
O23         O  0.72336884  0.87630597  0.83818920    -0.55140
C24         C  0.65615126  0.92787070  0.80315306     0.84910
O25         O  0.74022974  0.99509585  0.80491038    -0.57040
O26         O  0.79006142  0.93857175  0.81474947    -0.60330
In27       In  0.87953805  0.85965149  0.74857214     1.36870
C28         C  0.82109674  0.90287582  0.76678793     0.77360
O29         O  0.86565844  0.87298442  0.68802893    -0.61080
O30         O  0.87740786  0.81548802  0.70254701    -0.51990
C31         C  0.95344547  0.87262002  0.75222918     0.70030
O32         O  0.93106480  0.89729640  0.73882168    -0.46850
C33         C  0.86255731  0.81795050  0.80837903     0.74730
O34         O  0.85478217  0.91268708  0.77463939    -0.58710
O35         O  0.85629790  0.80655786  0.77491071    -0.48800
O36         O  0.81804860  0.87375337  0.74634747    -0.55140
C37         C  0.86629396  0.83868277  0.67760917     0.84910
O38         O  0.93797610  0.84235631  0.76280488    -0.57040
O39         O  0.88045786  0.84878514  0.81098061    -0.60330
In40       In  0.72626312  0.62933268  0.81970609     1.36870
C41         C  0.65978579  0.66488203  0.82153809     0.77360
O42         O  0.72650753  0.66905329  0.86954825    -0.61080
O43         O  0.77845624  0.66015147  0.84053263    -0.51990
C44         C  0.73003751  0.55403870  0.82758029     0.70030
O45         O  0.70942564  0.57065055  0.80389935    -0.46850
C46         C  0.75299341  0.64209468  0.75030965     0.74730
O47         O  0.66935572  0.64180258  0.84720684    -0.58710
O48         O  0.77357911  0.64450504  0.77960094    -0.48800
O49         O  0.68273012  0.66730533  0.79451862    -0.55140
C50         C  0.76047775  0.67895190  0.86513471     0.84910
O51         O  0.74698708  0.57585119  0.85031830    -0.57040
O52         O  0.71964355  0.63149307  0.75696384    -0.60330
In53       In  0.56934482  0.86464415  0.76108403     1.36870
C54         C  0.60795400  0.85230255  0.69776193     0.77360
O55         O  0.60923007  0.91412887  0.75603619    -0.61080
O56         O  0.60024899  0.89052194  0.81055897    -0.51990
C57         C  0.49394813  0.87392006  0.75951493     0.70030
O58         O  0.51161806  0.84939297  0.74078114    -0.46850
C59         C  0.57858594  0.79843241  0.79618907     0.74730
O60         O  0.58380800  0.87895139  0.69979869    -0.58710
O61         O  0.58008668  0.82979718  0.81353537    -0.48800
O62         O  0.61139629  0.83315691  0.72746208    -0.55140
C63         C  0.61983787  0.91218443  0.79009730     0.84910
O64         O  0.51494477  0.89712347  0.77698539    -0.57040
O65         O  0.56932726  0.80136277  0.76187709    -0.60330
In66       In  0.80321637  0.79567437  0.59086515     1.36870
C67         C  0.79753898  0.72959879  0.62641881     0.77360
O68         O  0.85434512  0.79286456  0.62886059    -0.61080
O69         O  0.82489991  0.84547762  0.62438068    -0.51990
C70         C  0.81173779  0.79930316  0.51591122     0.70030
O71         O  0.78984257  0.77691217  0.53239260    -0.46850
C72         C  0.73356373  0.82249366  0.60248908     0.74730
O73         O  0.82438385  0.73545392  0.60346028    -0.58710
O74         O  0.76262738  0.84293626  0.60730681    -0.48800
O75         O  0.77464411  0.75671767  0.62992373    -0.55140
C76         C  0.84954927  0.82598591  0.64166148     0.84910
O77         O  0.83285740  0.81828552  0.53773687    -0.57040
O78         O  0.74042923  0.79028893  0.58850515    -0.60330
In79       In  0.37772736  0.86246052  0.76575647     1.36870
C80         C  0.31869574  0.90699284  0.75039139     0.77360
O81         O  0.37904775  0.85447093  0.70285163    -0.61080
O82         O  0.35294413  0.81161888  0.73612046    -0.52230
C83         C  0.45242254  0.87213909  0.76224412     0.70030
O84         O  0.43106416  0.89875697  0.77368335    -0.46850
C85         C  0.36656733  0.83779599  0.83572677     0.74730
O86         O  0.35235717  0.91689991  0.74283194    -0.58710
O87         O  0.37491653  0.81581818  0.80864838    -0.48800
O88         O  0.31602930  0.87703967  0.76940681    -0.55140
C89         C  0.36010878  0.82418457  0.70346305     0.84910
O90         O  0.43550947  0.84186967  0.75360153    -0.57040
O91         O  0.36701770  0.87271976  0.82776870    -0.60330
In92       In  0.29897736  0.79352713  0.61000793     1.36870
C93         C  0.34287416  0.80828518  0.66919004     0.77360
O94         O  0.28892221  0.85632581  0.61122081    -0.61080
O95         O  0.24705494  0.82029501  0.63526712    -0.51990
C96         C  0.31057727  0.79973570  0.53635489     0.70030
O97         O  0.33640088  0.78719322  0.55796390    -0.46850
C98         C  0.27615868  0.72276022  0.62014719     0.74730
O99         O  0.35230455  0.81795008  0.63609592    -0.58710
O100        O  0.25340866  0.74925226  0.61184400    -0.48800
O101        O  0.31390043  0.78766406  0.67103000    -0.55140
C102        C  0.25858878  0.85377822  0.62971099     0.84910
O103        O  0.27985067  0.80791636  0.55243064    -0.57040
O104        O  0.31085200  0.73157234  0.61909241    -0.60330
In105      In  0.22402358  0.94411784  0.69316718     1.36870
C106        C  0.24145692  0.88678466  0.64812808     0.77360
O107        O  0.28687621  0.94482103  0.70426594    -0.61080
O108        O  0.25153869  0.91787907  0.74464437    -0.51990
C109        C  0.22817732  0.01830305  0.68306136     0.70030
O110        O  0.21740175  0.99666343  0.65643250    -0.46850
C111        C  0.15220882  0.93169302  0.71195709     0.74730
O112        O  0.24920764  0.92073182  0.63937664    -0.58710
O113        O  0.17684931  0.94251117  0.73580330    -0.48800
O114        O  0.22154559  0.88299244  0.67729505    -0.55140
C115        C  0.28493165  0.92501535  0.73375986     0.84910
O116        O  0.23564436  0.00196024  0.71379648    -0.57040
O117        O  0.16332864  0.93116826  0.67809468    -0.60330
In118      In  0.30850026  0.79081072  0.92344410     1.36870
C119        C  0.30533365  0.72543101  0.88583315     0.77360
O120        O  0.24516234  0.78950364  0.91897954    -0.61080
O121        O  0.27358692  0.84135575  0.90737492    -0.51990
C122        C  0.31606918  0.79291957  0.99863053     0.70030
O123        O  0.29232488  0.77301193  0.98116418    -0.46850
C124        C  0.35202011  0.82326532  0.87170982     0.74730
O125        O  0.33491298  0.73535713  0.90375081    -0.58710
O126        O  0.32952905  0.84222388  0.89214285    -0.48800
O127        O  0.27715047  0.74682185  0.89055700    -0.55140
C128        C  0.24286815  0.82303890  0.90703808     0.84910
O129        O  0.33962939  0.80946581  0.97772875    -0.57040
O130        O  0.35653631  0.78922195  0.88163992    -0.60330
In131      In  0.23495108  0.63672676  0.68415686     1.36870
C132        C  0.16929250  0.67168222  0.69551010     0.77360
O133        O  0.23657669  0.64031389  0.74711259    -0.61080
O134        O  0.28821520  0.64834913  0.71817755    -0.51990
C135        C  0.23475160  0.56122646  0.67662488     0.70030
O136        O  0.21923906  0.57916939  0.70300969    -0.46850
C137        C  0.26293142  0.68690088  0.63627173     0.74730
O138        O  0.17266371  0.64694028  0.66958009    -0.58710
O139        O  0.28397272  0.66662178  0.65695255    -0.48800
O140        O  0.19903923  0.67782655  0.71425739    -0.55140
C141        C  0.27122581  0.64862572  0.74953723     0.84910
O142        O  0.24852644  0.58188772  0.65110169    -0.57040
O143        O  0.22848280  0.67738127  0.63567056    -0.60330
In144      In  0.06873464  0.86401246  0.75210610     1.36870
C145        C  0.11686151  0.85151693  0.80854160     0.77360
O146        O  0.05696024  0.80202743  0.75526935    -0.61080
O147        O  0.08079326  0.82290982  0.70446430    -0.51990
C148        C  0.99465795  0.87640408  0.75449895     0.70030
O149        O  0.01304846  0.86150894  0.78114400    -0.46850
C150        C  0.11631486  0.91417724  0.72359225     0.74730
O151        O  0.09140180  0.87681768  0.81149612    -0.58710
O152        O  0.09965680  0.88975008  0.70316030    -0.48800
O153        O  0.11450630  0.83148927  0.77925599    -0.55140
C154        C  0.07168901  0.79422641  0.72374438     0.84910
O155        O  0.01464272  0.88991769  0.72835494    -0.57040
O156        O  0.10372369  0.91722827  0.75683225    -0.60330
In157      In  0.30135232  0.80360721  0.11337584     1.36870
C158        C  0.34411413  0.78767666  0.17265219     0.77360
O159        O  0.31289257  0.86498612  0.12821691    -0.61080
O160        O  0.25667615  0.84933330  0.11297348    -0.51990
C161        C  0.31298400  0.79787514  0.03965563     0.70030
O162        O  0.33927304  0.80928634  0.06147137    -0.46850
C163        C  0.26181884  0.74180662  0.13073357     0.74730
O164        O  0.35526340  0.78077006  0.13926650    -0.58710
O165        O  0.24992935  0.77507052  0.13699212    -0.48800
O166        O  0.31371952  0.80624279  0.17503269    -0.55140
C167        C  0.27851110  0.87478182  0.12580365     0.84910
O168        O  0.28190998  0.79102677  0.05558102    -0.57040
O169        O  0.29257141  0.74007084  0.11282307    -0.60330
In170      In  0.22636165  0.65075473  0.19251074     1.36870
C171        C  0.24438852  0.70833523  0.14798927     0.77360
O172        O  0.16493385  0.66552860  0.18155591    -0.61080
O173        O  0.18177107  0.65114701  0.23751437    -0.51990
C174        C  0.23140021  0.57627890  0.18259267     0.70030
O175        O  0.21877717  0.59731257  0.15635951    -0.46850
C176        C  0.28665548  0.66962995  0.23329626     0.74730
O177        O  0.25260672  0.67442364  0.13910518    -0.58710
O178        O  0.25331023  0.67761579  0.24372850    -0.48800
O179        O  0.22344124  0.71177693  0.17647462    -0.55140
C180        C  0.15591644  0.66354833  0.21602478     0.84910
O181        O  0.23995271  0.59334353  0.21275249    -0.57040
O182        O  0.28884439  0.64930121  0.20402486    -0.60330
In183      In  0.37920446  0.73019922  0.26676476     1.36870
C184        C  0.32018193  0.68727427  0.25019151     0.77360
O185        O  0.36457082  0.71834178  0.32744395    -0.61080
O186        O  0.38255537  0.77398332  0.31290501    -0.51990
C187        C  0.45247222  0.71760764  0.25969627     0.70030
O188        O  0.43082373  0.69166732  0.27172600    -0.46850
C189        C  0.36128048  0.77073348  0.20629185     0.74730
O190        O  0.35376173  0.67615037  0.24374903    -0.58710
O191        O  0.35388248  0.78200717  0.23948293    -0.48800
O192        O  0.31745790  0.71791531  0.26838696    -0.55140
C193        C  0.36857554  0.75245964  0.33766289     0.84910
O194        O  0.43664314  0.74889513  0.25298353    -0.57040
O195        O  0.38041005  0.74060180  0.20435208    -0.60330
In196      In  0.22998182  0.96107813  0.18757914     1.36870
C197        C  0.16694695  0.91969851  0.19473138     0.77360
O198        O  0.23143886  0.92348565  0.13543965    -0.61080
O199        O  0.28091427  0.92667465  0.16958709    -0.51990
C200        C  0.22904476  0.03631499  0.17731507     0.70030
O201        O  0.20776498  0.01908205  0.19974641    -0.46850
C202        C  0.26462331  0.95465308  0.25411380     0.74730
O203        O  0.17273763  0.93991695  0.16582971    -0.58710
O204        O  0.28235746  0.95422284  0.22312194    -0.48800
O205        O  0.19142384  0.92327103  0.22046756    -0.55140
C206        C  0.26397698  0.91030509  0.14261453     0.84910
O207        O  0.24831444  0.01491527  0.15621646    -0.57040
O208        O  0.22955233  0.96070046  0.25081161    -0.60330
In209      In  0.06981686  0.72418603  0.26560771     1.36870
C210        C  0.10898736  0.72946663  0.33005787     0.77360
O211        O  0.10850294  0.67297814  0.26377986    -0.61080
O212        O  0.10327222  0.70635817  0.21425391    -0.51990
C213        C  0.99481809  0.71450752  0.26451509     0.70030
O214        O  0.01168521  0.73813062  0.28514932    -0.46850
C215        C  0.07805969  0.79152321  0.23339858     0.74730
O216        O  0.08807018  0.70108897  0.32303497    -0.58710
O217        O  0.07722085  0.76078557  0.21481956    -0.48800
O218        O  0.10774389  0.75515421  0.30550445    -0.55140
C219        C  0.12064171  0.68001367  0.23104998     0.84910
O220        O  0.01637161  0.69198863  0.24707926    -0.57040
O221        O  0.07180700  0.78792505  0.26824390    -0.60330
In222      In  0.30597362  0.80329539  0.42040290     1.36870
C223        C  0.30350409  0.86658465  0.37974718     0.77360
O224        O  0.35917031  0.80014862  0.38529360    -0.61080
O225        O  0.32423482  0.75121220  0.38831751    -0.51990
C226        C  0.31382761  0.80385588  0.49533860     0.70030
O227        O  0.29140552  0.82498798  0.47755839    -0.46850
C228        C  0.23709799  0.77316222  0.41354243     0.74730
O229        O  0.32826441  0.86195267  0.40537403    -0.58710
O230        O  0.26695299  0.75323332  0.41424928    -0.48800
O231        O  0.27962373  0.84022776  0.37675623    -0.55140
C232        C  0.35174031  0.76749545  0.37255131     0.84910
O233        O  0.33607387  0.78493836  0.47477950    -0.57040
O234        O  0.24290210  0.80817832  0.41780666    -0.60330
In235      In  0.66975522  0.28551203  0.89810691     1.36870
C236        C  0.62422632  0.30016692  0.83978893     0.77360
O237        O  0.67881870  0.34853571  0.89879797    -0.61080
O238        O  0.72070735  0.31363270  0.87275945    -0.51990
C239        C  0.65665426  0.28966236  0.97192328     0.70030
O240        O  0.63282861  0.27441951  0.94972011    -0.46850
C241        C  0.69692188  0.21583368  0.88840114     0.74730
O242        O  0.61548889  0.30921534  0.87330535    -0.58710
O243        O  0.71803879  0.24370604  0.89652274    -0.48800
O244        O  0.65341599  0.27985373  0.83694040    -0.55140
C245        C  0.70879096  0.34683226  0.87960694     0.84910
O246        O  0.68607437  0.30209151  0.95628774    -0.57040
O247        O  0.66181100  0.22296141  0.88859317    -0.60330
In248      In  0.58663779  0.35736846  0.74604720     1.36870
C249        C  0.64535771  0.40125619  0.76202185     0.77360
O250        O  0.58734977  0.34725717  0.80855636    -0.61080
O251        O  0.61180982  0.30496973  0.77302089    -0.51990
C252        C  0.51300114  0.37152912  0.75232088     0.70030
O253        O  0.53527814  0.39600341  0.73873270    -0.46850
C254        C  0.59771135  0.33645194  0.67468698     0.74730
O255        O  0.61187264  0.41094962  0.77052854    -0.58710
O256        O  0.58798997  0.31302215  0.69989214    -0.48800
O257        O  0.64800341  0.37169240  0.74218468    -0.55140
C258        C  0.60597718  0.31680672  0.80636462     0.84910
O259        O  0.52828568  0.34049629  0.76122412    -0.57040
O260        O  0.59756401  0.37076277  0.68506662    -0.60330
In261      In  0.74039117  0.43837203  0.81715027     1.36870
C262        C  0.72500061  0.38041978  0.86171133     0.77360
O263        O  0.67752258  0.43845644  0.80826924    -0.61080
O264        O  0.71216065  0.41234804  0.76626684    -0.51990
C265        C  0.73498935  0.51281716  0.82576333     0.70030
O266        O  0.74641578  0.49216133  0.85278187    -0.46850
C267        C  0.81089928  0.42566600  0.79508306     0.74730
O268        O  0.71675440  0.41416312  0.87121774    -0.58710
O269        O  0.78484886  0.43514349  0.77231756    -0.48800
O270        O  0.74448196  0.37728029  0.83217019    -0.55140
C271        C  0.67907701  0.41912726  0.77826415     0.84910
O272        O  0.72791565  0.49543199  0.79538670    -0.57040
O273        O  0.80187351  0.42656301  0.82960240    -0.60330
In274      In  0.89756628  0.36398803  0.74989906     1.36870
C275        C  0.86011762  0.35915311  0.68415338     0.77360
O276        O  0.90020182  0.30080056  0.74555845    -0.61080
O277        O  0.88463037  0.32435671  0.79833543    -0.51990
C278        C  0.97259116  0.37547473  0.75268606     0.70030
O279        O  0.95637565  0.35340430  0.72991514    -0.46850
C280        C  0.84657739  0.40909930  0.78172727     0.74730
O281        O  0.88169904  0.38692612  0.69157614    -0.58710
O282        O  0.86414503  0.38402503  0.80026773    -0.48800
O283        O  0.85941260  0.33407366  0.70937488    -0.55140
C284        C  0.88928868  0.29460414  0.77885968     0.84910
O285        O  0.95031458  0.39526044  0.77235591    -0.57040
O286        O  0.85880660  0.41454871  0.74877572    -0.60330
In287      In  0.66409089  0.29583974  0.59031041     1.36870
C288        C  0.67854151  0.24044921  0.63881923     0.77360
O289        O  0.72619423  0.29270290  0.57799492    -0.61080
O290        O  0.70511995  0.34371844  0.60164349    -0.51990
C291        C  0.64961260  0.29327148  0.51654258     0.70030
O292        O  0.66517019  0.26653633  0.53434352    -0.46850
C293        C  0.61459628  0.32425933  0.63870344     0.74730
O294        O  0.65331057  0.23615454  0.61342753    -0.58710
O295        O  0.63792908  0.34494065  0.62123453    -0.48800
O296        O  0.69715576  0.27049047  0.63601355    -0.55140
C297        C  0.73403604  0.32444488  0.59252260     0.84910
O298        O  0.63666996  0.31956899  0.53706116    -0.57040
O299        O  0.61198978  0.29062444  0.62651967    -0.60330
In300      In  0.74181574  0.12762609  0.82876744     1.36870
C301        C  0.80707568  0.16325554  0.81627217     0.77360
O302        O  0.73726475  0.12490858  0.76554054    -0.61080
O303        O  0.69030349  0.14625463  0.79648035    -0.51990
C304        C  0.73997425  0.05275566  0.83836573     0.70030
O305        O  0.75915524  0.06928568  0.81374236    -0.46850
C306        C  0.71214416  0.17983507  0.87389657     0.74730
O307        O  0.80182545  0.14493774  0.84660741    -0.58710
O308        O  0.69191871  0.15715126  0.85478842    -0.48800
O309        O  0.77997835  0.16161133  0.79317491    -0.55140
C310        C  0.70573084  0.14163034  0.76471264     0.84910
O311        O  0.72437185  0.07456509  0.86197951    -0.57040
O312        O  0.74710902  0.17202076  0.87459824    -0.60330
In313      In  0.16806410  0.29105102  0.61159999     1.36870
C314        C  0.12444903  0.30857233  0.66941464     0.77360
O315        O  0.15380252  0.23029273  0.62537802    -0.61080
O316        O  0.21137410  0.24488546  0.61472651    -0.51990
C317        C  0.15958853  0.29381034  0.53738177     0.70030
O318        O  0.13165063  0.28592240  0.55837298    -0.46850
C319        C  0.20807354  0.35236174  0.62945441     0.74730
O320        O  0.11442133  0.31606020  0.63576329    -0.58710
O321        O  0.21935068  0.31917135  0.63717242    -0.48800
O322        O  0.15401195  0.28881458  0.67260956    -0.55140
C323        C  0.18811783  0.21995636  0.62548128     0.84910
O324        O  0.19058101  0.29898290  0.55443507    -0.57040
O325        O  0.17827544  0.35395383  0.60973440    -0.60330
In326      In  0.08859753  0.36590227  0.76329260     1.36870
C327        C  0.14711575  0.41066764  0.74706189     0.77360
O328        O  0.09790665  0.37701690  0.82547711    -0.61080
O329        O  0.09190308  0.31976094  0.80674515    -0.51990
C330        C  0.01394204  0.37433082  0.75731179     0.70030
O331        O  0.03433255  0.40096651  0.77045301    -0.46850
C332        C  0.10702854  0.32575289  0.70275157     0.74730
O333        O  0.11335728  0.41983224  0.73865888    -0.58710
O334        O  0.11422055  0.31446869  0.73594727    -0.48800
O335        O  0.15004430  0.38165301  0.76745126    -0.55140
C336        C  0.09928793  0.34218070  0.83378335     0.84910
O337        O  0.03171621  0.34466000  0.74844759    -0.57040
O338        O  0.08782032  0.35585936  0.70070343    -0.60330
In339      In  0.24195997  0.44563651  0.68940718     1.36870
C340        C  0.22480595  0.38625306  0.64686544     0.77360
O341        O  0.30210757  0.42781517  0.67616475    -0.61080
O342        O  0.29017910  0.44850019  0.73133207    -0.51990
C343        C  0.23788673  0.51980511  0.67868235     0.70030
O344        O  0.24669451  0.49786621  0.65154849    -0.46850
C345        C  0.18077333  0.42817929  0.72997219     0.74730
O346        O  0.21814980  0.41984443  0.63573509    -0.58710
O347        O  0.21417121  0.42195719  0.74167632    -0.48800
O348        O  0.24333257  0.38375817  0.67728478    -0.55140
C349        C  0.31380973  0.43262170  0.70961044     0.84910
O350        O  0.23210116  0.50362711  0.70977369    -0.57040
O351        O  0.17885351  0.44633269  0.69941620    -0.60330
In352      In  0.15962438  0.29884904  0.92224896     1.36870
C353        C  0.17174697  0.23447135  0.88529947     0.77360
O354        O  0.11203082  0.29402777  0.87974072    -0.61080
O355        O  0.13496335  0.34874136  0.89109481    -0.51990
C356        C  0.15011928  0.29820016  0.99649069     0.70030
O357        O  0.17286105  0.27729739  0.97901363    -0.46850
C358        C  0.22557066  0.33318285  0.91343409     0.74730
O359        O  0.14314119  0.23828701  0.90661524    -0.58710
O360        O  0.19432663  0.35049034  0.91047687    -0.48800
O361        O  0.19296263  0.26305323  0.88369198    -0.55140
C362        C  0.11417603  0.32839998  0.87009354     0.84910
O363        O  0.12790337  0.31707373  0.97577599    -0.57040
O364        O  0.22315885  0.29973103  0.92540476    -0.60330
In365      In  0.23348769  0.13476382  0.68863568     1.36870
C366        C  0.29889575  0.17222193  0.69215659     0.77360
O367        O  0.23367344  0.17093992  0.63660319    -0.61080
O368        O  0.18284256  0.16825107  0.66865320    -0.51990
C369        C  0.23194291  0.05952181  0.68042074     0.70030
O370        O  0.25420650  0.07693424  0.70203037    -0.46850
C371        C  0.20615443  0.14483803  0.75797785     0.74730
O372        O  0.29224372  0.14864679  0.66582353    -0.58710
O373        O  0.18546274  0.14782274  0.72887618    -0.48800
O374        O  0.27296720  0.17525223  0.71628927    -0.55140
C375        C  0.20105814  0.18432868  0.64257314     0.84910
O376        O  0.21207478  0.08057228  0.65947905    -0.57040
O377        O  0.23961193  0.13433057  0.75116592    -0.60330
In378      In  0.39707134  0.36744800  0.75823273     1.36870
C379        C  0.35392225  0.36090754  0.81952259     0.77360
O380        O  0.36209379  0.42135895  0.75662515    -0.61080
O381        O  0.36396588  0.38681545  0.70719514    -0.51990
C382        C  0.47207479  0.37670152  0.75686787     0.70030
O383        O  0.45474939  0.36189706  0.78396689    -0.46850
C384        C  0.38872152  0.29774789  0.72970003     0.74730
O385        O  0.36117760  0.33402168  0.79735754    -0.58710
O386        O  0.38026729  0.32733852  0.71137896    -0.48800
O387        O  0.37245391  0.39097599  0.81335922    -0.55140
C388        C  0.34880605  0.41463201  0.72400999     0.84910
O389        O  0.45095846  0.39190819  0.73248196    -0.57040
O390        O  0.40391729  0.30441347  0.76128503    -0.60330
In391      In  0.08773104  0.23526560  0.26324289     1.36870
C392        C  0.14541097  0.19025974  0.24664554     0.77360
O393        O  0.08593887  0.24504519  0.20081066    -0.61080
O394        O  0.11359677  0.28612137  0.23570314    -0.51990
C395        C  0.01349063  0.22710283  0.25765137     0.70030
O396        O  0.03438886  0.19920714  0.26653730    -0.46850
C397        C  0.10078721  0.25663525  0.33385280     0.74730
O398        O  0.11156729  0.18100749  0.23879391    -0.58710
O399        O  0.09257206  0.27993552  0.30800524    -0.48800
O400        O  0.14893245  0.21982043  0.26639127    -0.55140
C401        C  0.10575595  0.27469614  0.20263929     0.84910
O402        O  0.03052606  0.25818022  0.25353617    -0.57040
O403        O  0.09835991  0.22203640  0.32456388    -0.60330
In404      In  0.23873945  0.15229653  0.18962213     1.36870
C405        C  0.22269393  0.21078190  0.14546262     0.77360
O406        O  0.17603344  0.15303308  0.19951225    -0.61080
O407        O  0.21198837  0.17820478  0.24118755    -0.51990
C408        C  0.23297316  0.07773465  0.17948397     0.70030
O409        O  0.24574358  0.09873000  0.15347340    -0.46850
C410        C  0.30946793  0.16411197  0.21262709     0.74730
O411        O  0.21388432  0.17716898  0.13603697    -0.58710
O412        O  0.28342137  0.15415458  0.23493495    -0.48800
O413        O  0.24316686  0.21349616  0.17453492    -0.55140
C414        C  0.17852765  0.17201177  0.22969315     0.84910
O415        O  0.22436695  0.09487077  0.20953091    -0.57040
O416        O  0.30030931  0.16424768  0.17805425    -0.60330
In417      In  0.16633115  0.30632701  0.11072098     1.36870
C418        C  0.12320562  0.29095003  0.16914443     0.77360
O419        O  0.17535909  0.24322581  0.10976083    -0.61080
O420        O  0.21816922  0.27778903  0.13486087    -0.51990
C421        C  0.15353838  0.30201030  0.03742440     0.70030
O422        O  0.12781081  0.31390788  0.05938267    -0.46850
C423        C  0.18956006  0.37662819  0.12337250     0.74730
O424        O  0.11258500  0.28321118  0.13570220    -0.58710
O425        O  0.21127404  0.35109789  0.11061898    -0.48800
O426        O  0.15333193  0.30983916  0.17190728    -0.55140
C427        C  0.20599514  0.24464974  0.12816368     0.84910
O428        O  0.18456386  0.29376448  0.05307181    -0.57040
O429        O  0.15504707  0.36744046  0.12526536    -0.60330
In430      In  0.23774988  0.45942217  0.18833360     1.36870
C431        C  0.30277285  0.42065373  0.19242226     0.77360
O432        O  0.23986449  0.45856183  0.25157969    -0.61080
O433        O  0.18792392  0.44471482  0.22507354    -0.51990
C434        C  0.23578101  0.53493871  0.18036830     0.70030
O435        O  0.25675277  0.51780328  0.20338689    -0.46850
C436        C  0.20433755  0.41136512  0.14098436     0.74730
O437        O  0.29609531  0.44331340  0.16551561    -0.58710
O438        O  0.18637806  0.42854019  0.16668450    -0.48800
O439        O  0.27751259  0.41979158  0.21737459    -0.55140
C440        C  0.20614225  0.44748219  0.25574433     0.84910
O441        O  0.21774148  0.51350257  0.15814539    -0.57040
O442        O  0.23786340  0.42270520  0.13608814    -0.60330
In443      In  0.39754635  0.22334253  0.25986256     1.36870
C444        C  0.36052940  0.22426420  0.32481517     0.77360
O445        O  0.39472285  0.28639329  0.26583876    -0.61080
O446        O  0.38842873  0.26301312  0.21097329    -0.51990
C447        C  0.47253423  0.21463481  0.25727157     0.70030
O448        O  0.45582773  0.23714386  0.27912319    -0.46850
C449        C  0.34540744  0.17985347  0.22665107     0.74730
O450        O  0.38245135  0.19706006  0.31632201    -0.58710
O451        O  0.36340531  0.20500687  0.20886841    -0.48800
O452        O  0.36035228  0.25146473  0.30186233    -0.55140
C453        C  0.38869077  0.29265186  0.23131406     0.84910
O454        O  0.45093083  0.19250786  0.23922893    -0.57040
O455        O  0.35763471  0.17341078  0.25951365    -0.60330
In456      In  0.16540288  0.29718712  0.42092129     1.36870
C457        C  0.17350313  0.36365217  0.38681088     0.77360
O458        O  0.22815263  0.29423718  0.41370543    -0.61080
O459        O  0.19718870  0.24304434  0.40814846    -0.51990
C460        C  0.15818906  0.29686609  0.49613209     0.70030
O461        O  0.18507580  0.31188522  0.47873652    -0.46850
C462        C  0.11772561  0.26931090  0.36962046     0.74730
O463        O  0.14461052  0.35650589  0.40667572    -0.58710
O464        O  0.13871706  0.24813540  0.38943041    -0.48800
O465        O  0.19841208  0.33806347  0.38679079    -0.55140
C466        C  0.22900530  0.25928135  0.40601165     0.84910
O467        O  0.13233874  0.28378072  0.47512334    -0.57040
O468        O  0.11717494  0.30361653  0.37971051    -0.60330
In469      In  0.72484173  0.65185493  0.32529118     1.36870
C470        C  0.74101332  0.71237737  0.36712098     0.77360
O471        O  0.78812237  0.65039580  0.31766713    -0.61080
O472        O  0.75402202  0.67275601  0.27318406    -0.51990
C473        C  0.72778984  0.57792514  0.33789823     0.70030
O474        O  0.71539823  0.60024718  0.36318534    -0.46850
C475        C  0.65452623  0.66259215  0.30066505     0.74730
O476        O  0.74839850  0.67906019  0.37838097    -0.58710
O477        O  0.68131598  0.65316185  0.27890771    -0.48800
O478        O  0.72174391  0.71413232  0.33714408    -0.55140
C479        C  0.78700881  0.66694758  0.28615219     0.84910
O480        O  0.73757025  0.59356852  0.30759120    -0.57040
O481        O  0.66299997  0.66357543  0.33539584    -0.60330
In482      In  0.79936076  0.80743989  0.40065917     1.36870
C483        C  0.84299010  0.78773707  0.34329764     0.77360
O484        O  0.78816533  0.74484790  0.40315102    -0.61080
O485        O  0.74722287  0.77977321  0.37570003    -0.51990
C486        C  0.80922795  0.80394859  0.47483876     0.70030
O487        O  0.83629425  0.81370032  0.45354306    -0.46850
C488        C  0.78090827  0.87888272  0.38586357     0.74730
O489        O  0.85289470  0.78143298  0.37720843    -0.58710
O490        O  0.75690835  0.85481194  0.39708566    -0.48800
O491        O  0.81339820  0.80733033  0.33940665    -0.55140
C492        C  0.75817312  0.74651893  0.38373646     0.84910
O493        O  0.77818467  0.79779109  0.45820736    -0.57040
O494        O  0.81490812  0.86762150  0.38635120    -0.60330
In495      In  0.87963840  0.72695884  0.25169909     1.36870
C496        C  0.82097775  0.68341037  0.26902732     0.77360
O497        O  0.87996173  0.73950831  0.31387853    -0.61080
O498        O  0.85379816  0.77950343  0.27698905    -0.51990
C499        C  0.95368391  0.71680858  0.25925846     0.70030
O500        O  0.93268446  0.69002021  0.24754961    -0.46850
C501        C  0.86956664  0.74725189  0.17991964     0.74730
O502        O  0.85449898  0.67419046  0.27814746    -0.58710
O503        O  0.87675882  0.77096175  0.20591674    -0.48800
O504        O  0.81849604  0.71169106  0.24764935    -0.55140
C505        C  0.86068464  0.76944624  0.31063633     0.84910
O506        O  0.93684274  0.74766407  0.26567936    -0.57040
O507        O  0.87113059  0.71288509  0.18992053    -0.60330
In508      In  0.73988003  0.96139435  0.31678525     1.36870
C509        C  0.68047775  0.91587670  0.30737558     0.77360
O510        O  0.73757789  0.96999080  0.25430961    -0.61080
O511        O  0.78662857  0.94326979  0.27684455    -0.51990
C512        C  0.73914462  0.03606321  0.32841560     0.70030
O513        O  0.71227122  0.01814095  0.31322134    -0.46850
C514        C  0.76916381  0.91416884  0.36717835     0.74730
O515        O  0.70586687  0.92069759  0.28326655    -0.58710
O516        O  0.78924430  0.92976610  0.34212007    -0.48800
O517        O  0.68218828  0.93831203  0.33542020    -0.55140
C518        C  0.76794371  0.95227421  0.24762177     0.84910
O519        O  0.76525290  0.01553106  0.34159984    -0.57040
O520        O  0.73594705  0.92716656  0.37010001    -0.60330
In521      In  0.56813410  0.72144214  0.25233321     1.36870
C522        C  0.60929800  0.72312685  0.18994957     0.77360
O523        O  0.56961928  0.78502485  0.25053724    -0.61080
O524        O  0.58469042  0.75749799  0.30192293    -0.51990
C525        C  0.49329818  0.71393636  0.25419946     0.70030
O526        O  0.51038557  0.73647545  0.23290240    -0.46850
C527        C  0.61842180  0.67708353  0.28595036     0.74730
O528        O  0.58678941  0.69585135  0.19598023    -0.58710
O529        O  0.59878100  0.70089397  0.30415808    -0.48800
O530        O  0.60628331  0.75063188  0.21252154    -0.55140
C531        C  0.58314609  0.78802361  0.28346689     0.84910
O532        O  0.51443170  0.69130550  0.27198922    -0.57040
O533        O  0.60788281  0.67142249  0.25226346    -0.60330
In534      In  0.80693326  0.78450958  0.09029635     1.36870
C535        C  0.79321101  0.85039887  0.12513582     0.77360
O536        O  0.74368734  0.77873008  0.09174476    -0.61080
O537        O  0.77673766  0.73117939  0.10818864    -0.51990
C538        C  0.81432134  0.78468697  0.01486975     0.70030
O539        O  0.78948703  0.80241815  0.03291595    -0.46850
C540        C  0.85440915  0.75913006  0.14296974     0.74730
O541        O  0.77086223  0.82275487  0.12399663    -0.58710
O542        O  0.83551687  0.73693229  0.12199366    -0.48800
O543        O  0.82342992  0.84525727  0.10645503    -0.55140
C544        C  0.74428397  0.74617009  0.10617017     0.84910
O545        O  0.83863052  0.76831435  0.03540823    -0.57040
O546        O  0.85400270  0.79341553  0.13278736    -0.60330
In547      In  0.74213971  0.15209372  0.31731853     1.36870
C548        C  0.72305904  0.20721421  0.36495803     0.77360
O549        O  0.80362955  0.16570802  0.32749318    -0.61080
O550        O  0.78453711  0.15763995  0.27069236    -0.51990
C551        C  0.74101983  0.07745710  0.32635936     0.70030
O552        O  0.75568801  0.09885502  0.35127726    -0.46850
C553        C  0.68137669  0.17015312  0.27698749     0.74730
O554        O  0.71402313  0.17304782  0.37097162    -0.58710
O555        O  0.71449236  0.17917263  0.26679237    -0.48800
O556        O  0.74542258  0.21201007  0.33785895    -0.55140
C557        C  0.81125700  0.16731646  0.29267260     0.84910
O558        O  0.72818709  0.09422803  0.29772972    -0.57040
O559        O  0.67974044  0.14937033  0.30580081    -0.60330
In560      In  0.58722772  0.22901682  0.24497880     1.36870
C561        C  0.64735136  0.18707320  0.26038489     0.77360
O562        O  0.59683478  0.21481893  0.18368852    -0.61080
O563        O  0.58966651  0.27293417  0.19915543    -0.51990
C564        C  0.51347223  0.21780610  0.25157448     0.70030
O565        O  0.53506372  0.19104932  0.24097644    -0.46850
C566        C  0.60434013  0.26799814  0.30708278     0.74730
O567        O  0.61408216  0.17537976  0.26709103    -0.58710
O568        O  0.61095545  0.28066621  0.27430838    -0.48800
O569        O  0.64922937  0.21766536  0.24230698    -0.55140
C570        C  0.59799845  0.24913618  0.17359051     0.84910
O571        O  0.52954934  0.24928019  0.25695738    -0.57040
O572        O  0.58621083  0.23722723  0.30787429    -0.60330
In573      In  0.66396047  0.30032534  0.40120240     1.36870
C574        C  0.62132131  0.28437145  0.34132437     0.77360
O575        O  0.65243910  0.36179698  0.38769822    -0.61080
O576        O  0.70935368  0.34523306  0.39947688    -0.51990
C577        C  0.65211879  0.29555035  0.47526689     0.70030
O578        O  0.62784573  0.31105002  0.45378855    -0.46850
C579        C  0.70467737  0.23963907  0.38338383     0.74730
O580        O  0.61062369  0.27635948  0.37452960    -0.58710
O581        O  0.71763673  0.27300844  0.38138430    -0.48800
O582        O  0.65116878  0.30374329  0.33952457    -0.55140
C583        C  0.68697705  0.37117561  0.38871428     0.84910
O584        O  0.68114683  0.28319471  0.45881925    -0.57040
O585        O  0.67212642  0.23710295  0.39772555    -0.60330
In586      In  0.89699428  0.23119735  0.24837348     1.36870
C587        C  0.86379745  0.23300679  0.18087720     0.77360
O588        O  0.85484095  0.18336864  0.24397063    -0.61080
O589        O  0.86707173  0.20558158  0.29852972    -0.51990
C590        C  0.97236921  0.22535728  0.25229602     0.70030
O591        O  0.95501793  0.25242913  0.23719579    -0.46850
C592        C  0.87890680  0.29470305  0.28459730     0.74730
O593        O  0.88432219  0.20532093  0.19099282    -0.58710
O594        O  0.88175881  0.26307815  0.30094263    -0.48800
O595        O  0.86360132  0.26068459  0.20356381    -0.55140
C596        C  0.84624679  0.18439992  0.27843230     0.84910
O597        O  0.95138737  0.19868862  0.26318691    -0.57040
O598        O  0.88762234  0.29435523  0.25005082    -0.60330
In599      In  0.73389725  0.46117590  0.33260913     1.36870
C600        C  0.80067449  0.42692778  0.33376399     0.77360
O601        O  0.73329042  0.42040074  0.38159947    -0.61080
O602        O  0.68326866  0.42535820  0.34800309    -0.51990
C603        C  0.73122187  0.53669618  0.34117397     0.70030
O604        O  0.75419501  0.51923403  0.32071421    -0.46850
C605        C  0.71051598  0.43946998  0.26423930     0.74730
O606        O  0.78735779  0.44265539  0.30475672    -0.58710
O607        O  0.68712488  0.44549372  0.29052293    -0.48800
O608        O  0.78286266  0.43399353  0.36396825    -0.55140
C609        C  0.70084032  0.40744374  0.37361337     0.84910
O610        O  0.71061580  0.51558253  0.36102106    -0.57040
O611        O  0.74401864  0.44865844  0.27192693    -0.60330
In612      In  0.66295724  0.28848363  0.08776863     1.36870
C613        C  0.67672326  0.34766437  0.13266046     0.77360
O614        O  0.61199712  0.29457777  0.12550755    -0.61080
O615        O  0.63687394  0.23983126  0.11917369    -0.51990
C616        C  0.65295887  0.29179835  0.01312378     0.70030
O617        O  0.67113306  0.31605845  0.03190743    -0.46850
C618        C  0.72997019  0.25394387  0.09595558     0.74730
O619        O  0.64775221  0.34738047  0.11130394    -0.58710
O620        O  0.69889124  0.23677722  0.10037106    -0.48800
O621        O  0.69862296  0.31998192  0.12755780    -0.55140
C622        C  0.61431073  0.26091709  0.13735139     0.84910
O623        O  0.63534430  0.26792996  0.03278826    -0.57040
O624        O  0.72610423  0.28720178  0.08349657    -0.60330
C625        C  0.67422866  0.43071886  0.20381135    -0.06000
C626        C  0.70161159  0.41773116  0.22972305    -0.00070
C627        C  0.72059274  0.38295409  0.22309165    -0.08640
C628        C  0.71175660  0.36242346  0.19052273    -0.06020
C629        C  0.68440404  0.37471491  0.16422090    -0.00090
C630        C  0.66538550  0.40976201  0.17060604    -0.08550
C631        C  0.63664158  0.42523966  0.14259733     0.61830
H632        H  0.66006967  0.45741550  0.20971011     0.12520
H633        H  0.72634396  0.33577802  0.18580103     0.12530
C634        C  0.74983324  0.36677975  0.25057725     0.62060
F635        F  0.62450923  0.46133175  0.15255647    -0.23110
F636        F  0.60523508  0.40178292  0.14122212    -0.20440
F637        F  0.65279139  0.42726322  0.10705419    -0.20110
F638        F  0.73554496  0.36695764  0.28697416    -0.20170
F639        F  0.78256822  0.38824898  0.24922133    -0.20490
F640        F  0.75956046  0.32967770  0.24179573    -0.23160
C641        C  0.80700398  0.20434585  0.15326065    -0.06000
C642        C  0.83631426  0.23088895  0.14942926    -0.00070
C643        C  0.83341316  0.25948419  0.12178212    -0.08640
C644        C  0.79939826  0.26269911  0.10108438    -0.06020
C645        C  0.76768115  0.23965464  0.10885488    -0.00090
C646        C  0.77210702  0.20863965  0.13418276    -0.08550
C647        C  0.73967443  0.18205593  0.14391509     0.61830
H648        H  0.81008400  0.18263554  0.17469912     0.12520
H649        H  0.79633658  0.28563742  0.08097063     0.12530
C650        C  0.86571874  0.28707076  0.11511465     0.62060
F651        F  0.75151282  0.15238435  0.16669982    -0.23110
F652        F  0.72461821  0.16650344  0.11113178    -0.20440
F653        F  0.71180802  0.20178268  0.16328271    -0.20110
F654        F  0.89888317  0.26702143  0.10878285    -0.20170
F655        F  0.87053063  0.31035634  0.14635999    -0.20490
F656        F  0.85895376  0.30990418  0.08400317    -0.23160
C657        C  0.88010277  0.36398576  0.29847260    -0.06000
C658        C  0.86273286  0.32844281  0.30328249    -0.00070
C659        C  0.82738571  0.32609151  0.32187818    -0.08640
C660        C  0.81140063  0.35932683  0.33684024    -0.06020
C661        C  0.82733939  0.39502730  0.33008480    -0.00090
C662        C  0.86234649  0.39771700  0.31092481    -0.08550
C663        C  0.88037074  0.43600278  0.30356042     0.61830
H664        H  0.90674139  0.36524444  0.28332708     0.12520
H665        H  0.78399941  0.35806638  0.35063198     0.12530
C666        C  0.80454727  0.28948974  0.32236496     0.62060
F667        F  0.91628445  0.43228844  0.28825615    -0.23110
F668        F  0.88349614  0.45596897  0.33722677    -0.20440
F669        F  0.85825295  0.45652897  0.27852426    -0.20110
F670        F  0.82113937  0.26382631  0.34688067    -0.20170
F671        F  0.80262197  0.27375403  0.28643589    -0.20490
F672        F  0.76775107  0.29596357  0.33385202    -0.23160
C673        C  0.67750417  0.72181219  0.18450662    -0.06000
C674        C  0.64270841  0.72068485  0.16533072    -0.00070
C675        C  0.64168229  0.72237918  0.12546737    -0.08640
C676        C  0.67617468  0.72779532  0.10597726    -0.06020
C677        C  0.71087487  0.73092075  0.12561836    -0.00090
C678        C  0.71167477  0.72753570  0.16550985    -0.08550
C679        C  0.74798380  0.73274226  0.18841531     0.61830
H680        H  0.67737277  0.72014453  0.21514511     0.12520
H681        H  0.67613396  0.73136495  0.07554085     0.12530
C682        C  0.60438742  0.72001809  0.10423551     0.62060
F683        F  0.74126354  0.73183712  0.22690829    -0.23110
F684        F  0.76428092  0.76749661  0.18062777    -0.20440
F685        F  0.77327077  0.70401969  0.17960192    -0.20110
F686        F  0.58102138  0.74963772  0.11518950    -0.20170
F687        F  0.58683223  0.68592833  0.11234169    -0.20490
F688        F  0.60951272  0.72200644  0.06547530    -0.23160
C689        C  0.61508592  0.88839498  0.30783805    -0.06000
C690        C  0.65450910  0.88324584  0.30427338    -0.00070
C691        C  0.66938987  0.84642747  0.29672385    -0.08640
C692        C  0.64427610  0.81605591  0.29358312    -0.06020
C693        C  0.60511435  0.82135508  0.29499511    -0.00090
C694        C  0.58977707  0.85778425  0.30191870    -0.08550
C695        C  0.54723700  0.86381400  0.30280723     0.61830
H696        H  0.60430479  0.91668658  0.31346623     0.12520
H697        H  0.65503305  0.78784313  0.28732248     0.12530
C698        C  0.71153615  0.83875627  0.29093218     0.62060
F699        F  0.53794264  0.90098624  0.31175676    -0.23110
F700        F  0.53132181  0.84029177  0.32963943    -0.20440
F701        F  0.53179575  0.85529604  0.26773903    -0.20110
F702        F  0.73218262  0.85395129  0.32051554    -0.20170
F703        F  0.72331768  0.85468201  0.25728990    -0.20490
F704        F  0.71965084  0.80028857  0.28929042    -0.23160
C705        C  0.74398150  0.91879415  0.19200385    -0.06000
C706        C  0.77532006  0.93565458  0.20987525    -0.00070
C707        C  0.81185323  0.93063753  0.19436591    -0.08640
C708        C  0.81633673  0.90491101  0.16393107    -0.06020
C709        C  0.78541541  0.88404549  0.14939999    -0.00090
C710        C  0.74816926  0.89267356  0.16231690    -0.08550
C711        C  0.71273923  0.87299936  0.14708330     0.61830
H712        H  0.71604129  0.92342549  0.20389584     0.12520
H713        H  0.84448053  0.89897678  0.15318967     0.12530
C714        C  0.84553674  0.95267078  0.20962186     0.62060
F715        F  0.67995506  0.89200390  0.15752700    -0.23110
F716        F  0.71053617  0.83652396  0.16131903    -0.20440
F717        F  0.71353766  0.87173398  0.10796519    -0.20110
F718        F  0.85477441  0.94032523  0.24555569    -0.20170
F719        F  0.83660011  0.99093440  0.21102035    -0.20490
F720        F  0.87711972  0.94825028  0.18686912    -0.23160
C721        C  0.29903402  0.20275360  0.34701707    -0.06000
C722        C  0.33233895  0.22290210  0.35520156    -0.00070
C723        C  0.33306378  0.24904497  0.38549436    -0.08640
C724        C  0.29897938  0.25716572  0.40438832    -0.06020
C725        C  0.26439427  0.24062613  0.39300218    -0.00090
C726        C  0.26455562  0.21156443  0.36496884    -0.08550
C727        C  0.22832822  0.19240547  0.35134270     0.61830
H728        H  0.29938750  0.18295621  0.32344839     0.12520
H729        H  0.29865838  0.27865864  0.42642585     0.12530
C730        C  0.36955576  0.26896658  0.39674128     0.62060
F731        F  0.23531899  0.16536910  0.32366318    -0.23110
F732        F  0.20394343  0.21919577  0.33614776    -0.20440
F733        F  0.21093406  0.17434413  0.38126882    -0.20110
F734        F  0.38156062  0.29220996  0.36775847    -0.20170
F735        F  0.39730699  0.24213805  0.40407265    -0.20490
F736        F  0.36498525  0.29107434  0.42890568    -0.23160
C737        C  0.36120744  0.33214968  0.18067883    -0.06000
C738        C  0.37851989  0.33077423  0.21646855    -0.00070
C739        C  0.37994375  0.36442758  0.23882153    -0.08640
C740        C  0.35772875  0.39572441  0.22766925    -0.06020
C741        C  0.33565262  0.39468437  0.19460233    -0.00090
C742        C  0.33926626  0.36348331  0.16947981    -0.08550
C743        C  0.31562358  0.36062922  0.13378666     0.61830
H744        H  0.36143085  0.30685765  0.16313882     0.12520
H745        H  0.35508062  0.42010352  0.24631913     0.12530
C746        C  0.40299278  0.36719831  0.27511873     0.62060
F747        F  0.32526341  0.32929544  0.11202444    -0.23110
F748        F  0.32051356  0.39269740  0.11193724    -0.20440
F749        F  0.27807420  0.35721722  0.14385571    -0.20110
F750        F  0.43850170  0.35123153  0.26985306    -0.20170
F751        F  0.38445051  0.34864526  0.30402853    -0.20490
F752        F  0.40823340  0.40465178  0.28605555    -0.23160
C753        C  0.21670967  0.43737014  0.32419422    -0.06000
C754        C  0.19136618  0.43551623  0.29329452    -0.00070
C755        C  0.15531093  0.41815314  0.29848024    -0.08640
C756        C  0.14839051  0.39889415  0.33260641    -0.06020
C757        C  0.17629685  0.39604941  0.36080938    -0.00090
C758        C  0.20991902  0.41752924  0.35785770    -0.08550
C759        C  0.23892418  0.41856632  0.38974749     0.61830
H760        H  0.24347261  0.45204848  0.32088276     0.12520
H761        H  0.12262109  0.38246760  0.33579217     0.12530
C762        C  0.12500598  0.41754808  0.26778288     0.62060
F763        F  0.26609659  0.44628422  0.38397257    -0.23110
F764        F  0.25725185  0.38396020  0.39250894    -0.20440
F765        F  0.22087647  0.42649460  0.42355980    -0.20110
F766        F  0.13637502  0.39432155  0.23824898    -0.20170
F767        F  0.11871341  0.45399423  0.25468095    -0.20490
F768        F  0.09080068  0.40381664  0.28110784    -0.23160
C769        C  0.35149930  0.19684224  0.73037600    -0.06000
C770        C  0.33301200  0.19622457  0.69523691    -0.00070
C771        C  0.34118348  0.22460845  0.66834366    -0.08640
C772        C  0.36371259  0.25560016  0.67954904    -0.06020
C773        C  0.37757574  0.25912080  0.71672998    -0.00090
C774        C  0.37419323  0.22769224  0.74172199    -0.08550
C775        C  0.39176143  0.22719848  0.78109354     0.61830
H776        H  0.34522110  0.17437182  0.75025913     0.12520
H777        H  0.36772766  0.27902622  0.66022121     0.12530
C778        C  0.32289040  0.22443925  0.62952356     0.62060
F779        F  0.38875870  0.19182554  0.79779115    -0.23110
F780        F  0.37354093  0.25313485  0.80423790    -0.20440
F781        F  0.42996125  0.23589953  0.77897717    -0.20110
F782        F  0.28426808  0.22913643  0.63331469    -0.20170
F783        F  0.33027008  0.19035192  0.61142667    -0.20490
F784        F  0.33635335  0.25347712  0.60698630    -0.23160
C785        C  0.14955129  0.18506506  0.84043556    -0.06000
C786        C  0.17949448  0.20094012  0.86146372    -0.00070
C787        C  0.21728159  0.18990001  0.85354568    -0.08640
C788        C  0.22424178  0.16841485  0.82094262    -0.06020
C789        C  0.19475595  0.15730130  0.79642891    -0.00090
C790        C  0.15658986  0.16298763  0.80779782    -0.08550
C791        C  0.12348905  0.14704268  0.78529715     0.61830
H792        H  0.12071027  0.19298460  0.84753831     0.12520
H793        H  0.25343217  0.16303299  0.81295230     0.12530
C794        C  0.25090664  0.20367055  0.87690552     0.62060
F795        F  0.09016276  0.14843745  0.80586444    -0.23110
F796        F  0.13047696  0.10944220  0.77608628    -0.20440
F797        F  0.11823181  0.16778924  0.75257894    -0.20110
F798        F  0.24150703  0.20579915  0.91483313    -0.20170
F799        F  0.26213637  0.23909551  0.86446023    -0.20490
F800        F  0.28137872  0.17902845  0.87355973    -0.23160
C801        C  0.25402213  0.35253184  0.85549194    -0.06000
C802        C  0.25960945  0.34654672  0.89401465    -0.00070
C803        C  0.29677952  0.34654109  0.90938655    -0.08640
C804        C  0.32759877  0.35397549  0.88492591    -0.06020
C805        C  0.32168363  0.35829677  0.84579850    -0.00090
C806        C  0.28436105  0.35629377  0.83083718    -0.08550
C807        C  0.27622088  0.35826467  0.78879633     0.61830
H808        H  0.22534988  0.35125187  0.84427409     0.12520
H809        H  0.35642031  0.35437600  0.89572245     0.12530
C810        C  0.30348784  0.33839847  0.95093443     0.62060
F811        F  0.23782659  0.35652265  0.78054887    -0.23110
F812        F  0.29365119  0.32864137  0.76985070    -0.20440
F813        F  0.28975457  0.39216998  0.77584045    -0.20110
F814        F  0.29310735  0.30143364  0.95886581    -0.20170
F815        F  0.28201753  0.36297547  0.97274996    -0.20490
F816        F  0.34125283  0.34290099  0.96091106    -0.23160
C817        C  0.67599776  0.17561788  0.66705839    -0.06000
C818        C  0.68483739  0.21446843  0.67104777    -0.00070
C819        C  0.69890003  0.22838479  0.70643501    -0.08640
C820        C  0.70229686  0.20304652  0.73642418    -0.06020
C821        C  0.69454654  0.16449104  0.73215392    -0.00090
C822        C  0.68188239  0.14993497  0.69711786    -0.08550
C823        C  0.67468554  0.10783772  0.69203003     0.61830
H824        H  0.66554418  0.16539752  0.64001059     0.12520
H825        H  0.71300492  0.21288767  0.76356642     0.12530
C826        C  0.71080063  0.26953470  0.71339901     0.62060
F827        F  0.66096499  0.09946345  0.65619050    -0.23110
F828        F  0.64830270  0.09587769  0.71825109    -0.20440
F829        F  0.70813308  0.08794224  0.69741536    -0.20110
F830        F  0.68114001  0.29380605  0.70479112    -0.20170
F831        F  0.74209426  0.27812605  0.69153118    -0.20490
F832        F  0.72091985  0.27624237  0.75076202    -0.23160
C833        C  0.83324418  0.31925055  0.63368782    -0.06000
C834        C  0.83576240  0.35547268  0.65005943    -0.00070
C835        C  0.80962933  0.38392397  0.63889960    -0.08640
C836        C  0.77869786  0.37348623  0.61573535    -0.06020
C837        C  0.77319263  0.33577676  0.60376395    -0.00090
C838        C  0.80260585  0.30872781  0.61028916    -0.08550
C839        C  0.80095664  0.26810639  0.59548694     0.61830
H840        H  0.85409453  0.29816171  0.64196809     0.12520
H841        H  0.75675717  0.39414442  0.60953132     0.12530
C842        C  0.81223935  0.42417460  0.65398303     0.62060
F843        F  0.83478519  0.24893423  0.60148190    -0.23110
F844        F  0.79409671  0.26816647  0.55691694    -0.20440
F845        F  0.77268156  0.24820727  0.61373499    -0.20110
F846        F  0.84749669  0.43912873  0.64579334    -0.20170
F847        F  0.80689220  0.42415964  0.69264151    -0.20490
F848        F  0.78501492  0.44763104  0.63803251    -0.23160
C849        C  0.85305353  0.21190761  0.83792136    -0.06000
C850        C  0.83989133  0.18815497  0.80869698    -0.00070
C851        C  0.85170878  0.19505473  0.77109917    -0.08640
C852        C  0.87043191  0.22911367  0.76314733    -0.06020
C853        C  0.87875721  0.25584985  0.79159953    -0.00090
C854        C  0.87276630  0.24581854  0.82999501    -0.08550
C855        C  0.88575733  0.27105161  0.86241072     0.61830
H856        H  0.84461579  0.20578562  0.86669894     0.12520
H857        H  0.87610302  0.23604311  0.73385272     0.12530
C858        C  0.84138019  0.16895354  0.73833612     0.62060
F859        F  0.88467681  0.25204653  0.89660150    -0.23110
F860        F  0.86244564  0.30254339  0.86512299    -0.20440
F861        F  0.92278388  0.28255733  0.85647820    -0.20110
F862        F  0.80657235  0.17953906  0.72347481    -0.20170
F863        F  0.83978376  0.13153547  0.75003077    -0.20490
F864        F  0.86827082  0.17114508  0.70998458    -0.23160
C865        C  0.13387483  0.76637893  0.38385520    -0.06000
C866        C  0.13529359  0.73274280  0.36255145    -0.00070
C867        C  0.16703043  0.70834164  0.36634846    -0.08640
C868        C  0.19835092  0.72080085  0.38771580    -0.06020
C869        C  0.19921761  0.75715458  0.40413065    -0.00090
C870        C  0.16522448  0.77888455  0.40529402    -0.08550
C871        C  0.16214679  0.81597085  0.42714165     0.61830
H872        H  0.10910367  0.78446858  0.38105548     0.12520
H873        H  0.22397876  0.70379018  0.38812450     0.12530
C874        C  0.17029632  0.67200560  0.34359994     0.62060
F875        F  0.12461780  0.82631089  0.43251037    -0.23110
F876        F  0.17984651  0.84476958  0.40748407    -0.20440
F877        F  0.17876413  0.81217198  0.46248483    -0.20110
F878        F  0.17253452  0.68114922  0.30582633    -0.20170
F879        F  0.13899679  0.64926845  0.34971492    -0.20490
F880        F  0.20240619  0.65135825  0.35308648    -0.23160
C881        C  0.10509880  0.89511298  0.21877180    -0.06000
C882        C  0.13782729  0.88966395  0.19682491    -0.00070
C883        C  0.14626005  0.85301676  0.18268812    -0.08640
C884        C  0.12280755  0.82263324  0.19208451    -0.06020
C885        C  0.09240371  0.82710022  0.21682585    -0.00090
C886        C  0.08179996  0.86408542  0.22891222    -0.08550
C887        C  0.04598089  0.87069323  0.25163327     0.61830
H888        H  0.09902371  0.92334889  0.22947276     0.12520
H889        H  0.13027999  0.79422339  0.18284786     0.12530
C890        C  0.18162336  0.84530149  0.15997721     0.62060
F891        F  0.03712704  0.90894791  0.25407169    -0.23110
F892        F  0.05047176  0.85694037  0.28793257    -0.20440
F893        F  0.01582899  0.85231407  0.23428970    -0.20110
F894        F  0.21328866  0.85400548  0.18160261    -0.20170
F895        F  0.18080047  0.86708517  0.12761351    -0.20490
F896        F  0.18423456  0.80763766  0.14911790    -0.23160
C897        C  0.27624069  0.92697602  0.35686205    -0.06000
C898        C  0.30333635  0.89814172  0.35254830    -0.00070
C899        C  0.32324114  0.89467178  0.31804362    -0.08640
C900        C  0.31331665  0.91831563  0.28782339    -0.06020
C901        C  0.28246343  0.94329946  0.29035298    -0.00090
C902        C  0.26555566  0.95010370  0.32615212    -0.08550
C903        C  0.23514158  0.98008235  0.33177372     0.61830
H904        H  0.26121976  0.92919978  0.38348289     0.12520
H905        H  0.32652633  0.91385427  0.26054188     0.12530
C906        C  0.35090776  0.86249204  0.31142911     0.62060
F907        F  0.23151001  0.98967470  0.36962770    -0.23110
F908        F  0.20054572  0.96659767  0.31896035    -0.20440
F909        F  0.24449103  0.01272523  0.31225846    -0.20110
F910        F  0.33110920  0.82869323  0.31226093    -0.20170
F911        F  0.37854001  0.86271654  0.33931883    -0.20490
F912        F  0.36876859  0.86507658  0.27671502    -0.23160
C913        C  0.11505453  0.71023080  0.67237553    -0.06000
C914        C  0.13462178  0.69392876  0.70300803    -0.00070
C915        C  0.12498372  0.70463987  0.74046001    -0.08640
C916        C  0.10005191  0.73510938  0.74572918    -0.06020
C917        C  0.08510662  0.75541143  0.71500425    -0.00090
C918        C  0.09024652  0.74126268  0.67784732    -0.08550
C919        C  0.07006106  0.75904167  0.64437747     0.61830
H920        H  0.12193204  0.70095294  0.64395032     0.12520
H921        H  0.09543642  0.74570354  0.77419605     0.12530
C922        C  0.14345564  0.68675571  0.77505331     0.62060
F923        F  0.07266242  0.73632858  0.61241624    -0.23110
F924        F  0.08585691  0.79392924  0.63621290    -0.20440
F925        F  0.03200694  0.76377265  0.65271245    -0.20110
F926        F  0.17880411  0.70272241  0.78124978    -0.20170
F927        F  0.14726601  0.64795382  0.76997920    -0.20490
F928        F  0.12181686  0.69263404  0.80716542    -0.23160
C929        C  0.32754586  0.70279556  0.82439606    -0.06000
C930        C  0.30483127  0.69598456  0.85611282    -0.00070
C931        C  0.27621097  0.66804247  0.85422151    -0.08640
C932        C  0.26902084  0.65006954  0.81933654    -0.06020
C933        C  0.28847466  0.66037393  0.78622068    -0.00090
C934        C  0.31938359  0.68615860  0.78896817    -0.08550
C935        C  0.34162202  0.69879651  0.75449984     0.61830
H936        H  0.34921132  0.72450875  0.82663912     0.12520
H937        H  0.24602612  0.62976486  0.81716090     0.12530
C938        C  0.25277141  0.65810096  0.88869206     0.62060
F939        F  0.37027492  0.72403413  0.76394025    -0.23110
F940        F  0.31762797  0.71678669  0.72915327    -0.20440
F941        F  0.35821502  0.66761849  0.73728775    -0.20110
F942        F  0.22965486  0.68828583  0.89849894    -0.20170
F943        F  0.27667468  0.64982523  0.91869900    -0.20490
F944        F  0.22990459  0.62678328  0.88212054    -0.23160
C945        C  0.21630218  0.83758775  0.84633434    -0.06000
C946        C  0.21002190  0.83589121  0.88517442    -0.00070
C947        C  0.17305045  0.84041220  0.89978620    -0.08640
C948        C  0.14301388  0.84753879  0.87415789    -0.06020
C949        C  0.14913874  0.84697008  0.83484932    -0.00090
C950        C  0.18645328  0.84129275  0.82063434    -0.08550
C951        C  0.19526589  0.83772561  0.77861426     0.61830
H952        H  0.24491140  0.83291875  0.83607293     0.12520
H953        H  0.11436800  0.85162312  0.88445378     0.12530
C954        C  0.16577613  0.83745301  0.94188159     0.62060
F955        F  0.23390103  0.83739552  0.77162545    -0.23110
F956        F  0.17992150  0.86797244  0.75926620    -0.20440
F957        F  0.18040689  0.80415042  0.76453466    -0.20110
F958        F  0.18817426  0.86341450  0.96113474    -0.20170
F959        F  0.17458596  0.80125542  0.95418147    -0.20490
F960        F  0.12818753  0.84471817  0.95058320    -0.23160
C961        C  0.64974812  0.87497508  0.64610372    -0.06000
C962        C  0.63242356  0.84443879  0.66477953    -0.00070
C963        C  0.64350751  0.80675478  0.65577609    -0.08640
C964        C  0.67486956  0.80120260  0.63226949    -0.06020
C965        C  0.69555263  0.83181243  0.61768598    -0.00090
C966        C  0.68146599  0.86921995  0.62243453    -0.08550
C967        C  0.69981081  0.90269189  0.60290131     0.61830
H968        H  0.64030863  0.90357358  0.65252502     0.12520
H969        H  0.68531313  0.77255190  0.62787565     0.12530
C970        C  0.62433712  0.77216891  0.67281019     0.62060
F971        F  0.67728540  0.93486619  0.60505526    -0.23110
F972        F  0.70524810  0.89418933  0.56503480    -0.20440
F973        F  0.73438616  0.91084660  0.61963624    -0.20110
F974        F  0.58541355  0.77727845  0.67365067    -0.20170
F975        F  0.63776489  0.76628988  0.70915762    -0.20490
F976        F  0.63159455  0.73970516  0.65177053    -0.23160
C977        C  0.63399349  0.72278414  0.84927640    -0.06000
C978        C  0.62819279  0.69197082  0.82472937    -0.00070
C979        C  0.59937442  0.69380518  0.79700628    -0.08640
C980        C  0.58037598  0.72847426  0.79156779    -0.06020
C981        C  0.59015927  0.76126608  0.81238997    -0.00090
C982        C  0.61579174  0.75789963  0.84340342    -0.08550
C983        C  0.62670100  0.79154964  0.86821166     0.61830
H984        H  0.65623837  0.72045615  0.87041719     0.12520
H985        H  0.55971554  0.73087061  0.76890258     0.12530
C986        C  0.58943683  0.65937946  0.77297945     0.62060
F987        F  0.65040252  0.78100383  0.89771510    -0.23110
F988        F  0.59444639  0.80752724  0.88380210    -0.20440
F989        F  0.64562156  0.81836522  0.84692904    -0.20110
F990        F  0.58025986  0.62940750  0.79635269    -0.20170
F991        F  0.61987882  0.64902896  0.75072137    -0.20490
F992        F  0.55874374  0.66634247  0.74939477    -0.23160
C993        C  0.80504612  0.66232424  0.70786642    -0.06000
C994        C  0.76628790  0.65368341  0.71209604    -0.00070
C995        C  0.74104056  0.66089456  0.68132950    -0.08640
C996        C  0.75464938  0.68138314  0.65026040    -0.06020
C997        C  0.79187975  0.69505120  0.64906300    -0.00090
C998        C  0.81835577  0.68310032  0.67666691    -0.08550
C999        C  0.85965362  0.69476067  0.67475499     0.61830
H1000       H  0.82446444  0.65530526  0.73062879     0.12520
H1001       H  0.73513692  0.69046209  0.62827434     0.12530
C1002       C  0.69921403  0.65043219  0.68196914     0.62060
F1003       F  0.88116309  0.67774030  0.70285337    -0.23110
F1004       F  0.86264331  0.73363653  0.67905857    -0.20440
F1005       F  0.87452710  0.68410804  0.64014542    -0.20110
F1006       F  0.68084602  0.67191018  0.70912970    -0.20170
F1007       F  0.69514188  0.61217027  0.68964860    -0.20490
F1008       F  0.68152006  0.65730343  0.64759180    -0.23160
loop_ 
_geom_bond_atom_site_label_1 
_geom_bond_atom_site_label_2 
_geom_bond_distance 
_geom_bond_site_symmetry_2 
_ccdc_geom_bond_type 
In1           O3   2.250       .  S
In1           O4   2.233       .  S
In1          O12   2.197       .  S
In1           O6   2.294       .  S
In1           O8   2.261       .  S
In1           O9   2.246       .  S
In1          O10   2.230       .  S
In1          O13   2.245       .  S
C2            O8   1.266       .  A
C2           O10   1.256       .  A
C2           C33   1.464       .  S
O3           C11   1.263       .  A
O4           C11   1.263       .  A
C5           O12   1.257       .  A
C5            O6   1.267       .  A
C5          C538   1.467   1_556  S
C7            O9   1.263       .  A
C7           O13   1.259       .  A
C7           C15   1.462       .  S
C11          C50   1.464       .  S
In14         O16   2.249       .  S
In14         O17   2.240       .  S
In14         O25   2.187       .  S
In14         O19   2.282       .  S
In14         O21   2.258       .  S
In14         O22   2.244       .  S
In14         O23   2.225       .  S
In14         O26   2.237       .  S
C15          O21   1.266       .  A
C15          O23   1.257       .  A
O16          C24   1.263       .  A
O17          C24   1.263       .  A
C18          O25   1.257   1_545  A
C18          O19   1.267   1_545  A
C18         C304   1.460       .  S
C20          O22   1.264       .  A
C20          O26   1.259       .  A
C20          C28   1.460       .  S
C24          C63   1.466       .  S
In27         O29   2.244       .  S
In27         O30   2.246       .  S
In27         O38   2.203       .  S
In27         O32   2.278       .  S
In27         O34   2.255       .  S
In27         O35   2.249       .  S
In27         O36   2.223       .  S
In27         O39   2.240       .  S
C28          O34   1.266       .  A
C28          O36   1.256       .  A
O29          C37   1.261       .  A
O30          C37   1.265       .  A
C31          O38   1.257       .  A
C31          O32   1.265       .  A
C31         C148   1.460       .  S
C33          O35   1.266       .  A
C33          O39   1.259       .  A
C37          C76   1.466       .  S
In40         O42   2.244       .  S
In40         O43   2.256       .  S
In40         O51   2.293       .  S
In40         O45   2.219       .  S
In40         O47   2.274       .  S
In40         O48   2.260       .  S
In40         O49   2.220       .  S
In40         O52   2.230       .  S
C41          O47   1.265       .  A
C41          O49   1.257       .  A
C41         C978   1.469       .  S
O42          C50   1.258       .  A
O43          C50   1.263       .  A
C44          O51   1.258       .  A
C44          O45   1.252       .  A
C44         C265   1.463       .  S
C46          O48   1.264       .  A
C46          O52   1.257       .  A
C46         C994   1.490       .  S
In53         O55   2.248       .  S
In53         O56   2.246       .  S
In53         O64   2.301       .  S
In53         O58   2.220       .  S
In53         O60   2.286       .  S
In53         O61   2.258       .  S
In53         O62   2.199       .  S
In53         O65   2.228       .  S
C54          O60   1.268       .  A
C54          O62   1.255       .  A
C54         C962   1.478       .  S
O55          C63   1.261       .  A
O56          C63   1.262       .  A
C57          O64   1.261       .  A
C57          O58   1.253       .  A
C57          C83   1.468       .  S
C59          O61   1.262       .  A
C59          O65   1.259       .  A
C59         C981   1.487       .  S
In66         O68   2.244       .  S
In66         O69   2.245       .  S
In66         O77   2.299       .  S
In66         O71   2.215       .  S
In66         O73   2.292       .  S
In66         O74   2.268       .  S
In66         O75   2.199       .  S
In66         O78   2.222       .  S
C67          O73   1.267       .  A
C67          O75   1.255       .  A
C67         C997   1.473       .  S
O68          C76   1.260       .  A
O69          C76   1.263       .  A
C70          O77   1.260       .  A
C70          O71   1.252       .  A
C70         C486   1.464       .  S
C72          O74   1.263       .  A
C72          O78   1.258       .  A
C72         C965   1.481       .  S
In79         O81   2.240       .  S
In79         O82   2.246       .  S
In79         O90   2.204       .  S
In79         O84   2.290       .  S
In79         O86   2.266       .  S
In79         O87   2.243       .  S
In79         O88   2.237       .  S
In79         O91   2.253       .  S
C80          O86   1.267       .  A
C80          O88   1.257       .  A
C80         C115   1.469       .  S
O81          C89   1.259       .  A
O82          C89   1.265       .  A
C83          O90   1.258       .  A
C83          O84   1.267       .  A
C85          O87   1.263       .  A
C85          O91   1.263       .  A
C85         C124   1.468       .  S
C89          C93   1.462       .  S
In92         O94   2.239       .  S
In92         O95   2.244       .  S
In92        O103   2.202       .  S
In92         O97   2.278       .  S
In92         O99   2.259       .  S
In92        O100   2.241       .  S
In92        O101   2.228       .  S
In92        O104   2.245       .  S
C93          O99   1.266       .  A
C93         O101   1.256       .  A
O94         C102   1.259       .  A
O95         C102   1.264       .  A
C96         O103   1.258       .  A
C96          O97   1.266       .  A
C96         C226   1.462       .  S
C98         O100   1.264       .  A
C98         O104   1.263       .  A
C98         C137   1.465       .  S
C102        C106   1.461       .  S
In105       O107   2.248       .  S
In105       O108   2.258       .  S
In105       O116   2.198   1_565  S
In105       O110   2.276       .  S
In105       O112   2.254       .  S
In105       O113   2.250       .  S
In105       O114   2.223       .  S
In105       O117   2.249       .  S
C106        O112   1.267       .  A
C106        O114   1.257       .  A
O107        C115   1.259       .  A
O108        C115   1.266       .  A
C109        O116   1.258       .  A
C109        O110   1.265   1_545  A
C109        C369   1.461       .  S
C111        O113   1.265       .  A
C111        O117   1.261       .  A
C111        C150   1.469       .  S
In118       O120   2.237       .  S
In118       O121   2.236       .  S
In118       O129   2.299       .  S
In118       O123   2.214       .  S
In118       O125   2.270       .  S
In118       O126   2.254       .  S
In118       O127   2.224       .  S
In118       O130   2.252       .  S
C119        O125   1.266       .  A
C119        O127   1.257       .  A
C119        C930   1.473       .  S
O120        C128   1.258       .  A
O121        C128   1.261       .  A
C122        O129   1.259       .  A
C122        O123   1.251       .  A
C122        C161   1.464   1_556  S
C124        O126   1.263       .  A
C124        O130   1.260       .  A
C128        C946   1.461       .  S
In131       O133   2.228       .  S
In131       O134   2.261       .  S
In131       O142   2.303       .  S
In131       O136   2.208       .  S
In131       O138   2.281       .  S
In131       O139   2.246       .  S
In131       O140   2.196       .  S
In131       O143   2.248       .  S
C132        O138   1.267       .  A
C132        O140   1.256       .  A
C132        C914   1.475       .  S
O133        C141   1.258       .  A
O134        C141   1.262       .  A
C135        O142   1.261       .  A
C135        O136   1.251       .  A
C135        C343   1.465       .  S
C137        O139   1.262       .  A
C137        O143   1.260       .  A
C141        C933   1.487       .  S
In144       O146   2.226       .  S
In144       O147   2.257       .  S
In144       O155   2.271       .  S
In144       O149   2.221       .  S
In144       O151   2.285       .  S
In144       O152   2.244       .  S
In144       O153   2.196       .  S
In144       O156   2.250       .  S
C145        O151   1.268       .  A
C145        O153   1.252       .  A
C145        C949   1.475       .  S
O146        C154   1.260       .  A
O147        C154   1.264       .  A
C148        O155   1.260   1_655  A
C148        O149   1.257   1_655  A
C150        O152   1.264       .  A
C150        O156   1.262       .  A
C154        C917   1.477       .  S
In157       O159   2.259       .  S
In157       O160   2.250       .  S
In157       O168   2.195       .  S
In157       O162   2.284       .  S
In157       O164   2.254       .  S
In157       O165   2.240       .  S
In157       O166   2.222       .  S
In157       O169   2.259       .  S
C158        O164   1.268       .  A
C158        O166   1.257       .  A
C158        C189   1.461       .  S
O159        C167   1.262       .  A
O160        C167   1.263       .  A
C161        O168   1.258       .  A
C161        O162   1.267       .  A
C163        O165   1.262       .  A
C163        O169   1.259       .  A
C163        C171   1.466       .  S
C167        C206   1.474       .  S
In170       O172   2.258       .  S
In170       O173   2.241       .  S
In170       O181   2.199       .  S
In170       O175   2.285       .  S
In170       O177   2.268       .  S
In170       O178   2.246       .  S
In170       O179   2.227       .  S
In170       O182   2.238       .  S
C171        O177   1.267       .  A
C171        O179   1.256       .  A
O172        C180   1.263       .  A
O173        C180   1.262       .  A
C174        O181   1.257       .  A
C174        O175   1.268       .  A
C174        C434   1.465       .  S
C176        O178   1.264       .  A
C176        O182   1.258       .  A
C176        C184   1.460       .  S
C180        C219   1.471       .  S
In183       O185   2.249       .  S
In183       O186   2.242       .  S
In183       O194   2.187       .  S
In183       O188   2.274       .  S
In183       O190   2.252       .  S
In183       O191   2.249       .  S
In183       O192   2.220       .  S
In183       O195   2.238       .  S
C184        O190   1.267       .  A
C184        O192   1.257       .  A
O185        C193   1.261       .  A
O186        C193   1.262       .  A
C187        O194   1.257       .  A
C187        O188   1.267       .  A
C187        C525   1.458       .  S
C189        O191   1.265       .  A
C189        O195   1.258       .  A
C193        C232   1.467       .  S
In196       O198   2.265       .  S
In196       O199   2.256       .  S
In196       O207   2.295   1_565  S
In196       O201   2.227   1_565  S
In196       O203   2.280       .  S
In196       O204   2.241       .  S
In196       O205   2.237       .  S
In196       O208   2.235       .  S
C197        O203   1.265       .  A
C197        O205   1.257       .  A
C197        C882   1.477       .  S
O198        C206   1.261       .  A
O199        C206   1.260       .  A
C200        O207   1.258       .  A
C200        O201   1.253       .  A
C200        C408   1.467       .  S
C202        O204   1.264       .  A
C202        O208   1.259       .  A
C202        C901   1.481       .  S
In209       O211   2.260       .  S
In209       O212   2.255       .  S
In209       O220   2.291       .  S
In209       O214   2.218       .  S
In209       O216   2.279       .  S
In209       O217   2.231       .  S
In209       O218   2.222       .  S
In209       O221   2.247       .  S
C210        O216   1.265       .  A
C210        O218   1.257       .  A
C210        C866   1.477       .  S
O211        C219   1.261       .  A
O212        C219   1.260       .  A
C213        O220   1.258   1_655  A
C213        O214   1.252   1_655  A
C213        C499   1.463       .  S
C215        O217   1.264       .  A
C215        O221   1.259       .  A
C215        C885   1.476       .  S
In222       O224   2.255       .  S
In222       O225   2.247       .  S
In222       O233   2.286       .  S
In222       O227   2.218       .  S
In222       O229   2.277       .  S
In222       O230   2.246       .  S
In222       O231   2.221       .  S
In222       O234   2.231       .  S
C223        O229   1.266       .  A
C223        O231   1.257       .  A
C223        C898   1.473       .  S
O224        C232   1.260       .  A
O225        C232   1.260       .  A
C226        O233   1.259       .  A
C226        O227   1.253       .  A
C228        O230   1.264       .  A
C228        O234   1.258       .  A
C228        C869   1.485       .  S
In235       O237   2.242       .  S
In235       O238   2.244       .  S
In235       O246   2.209       .  S
In235       O240   2.281       .  S
In235       O242   2.260       .  S
In235       O243   2.249       .  S
In235       O244   2.243       .  S
In235       O247   2.244       .  S
C236        O242   1.265       .  A
C236        O244   1.256       .  A
C236        C258   1.466       .  S
O237        C245   1.259       .  A
O238        C245   1.264       .  A
C239        O246   1.257       .  A
C239        O240   1.265       .  A
C239        C616   1.464   1_556  S
C241        O243   1.264       .  A
C241        O247   1.262       .  A
C241        C306   1.467       .  S
C245        C262   1.462       .  S
In248       O250   2.239       .  S
In248       O251   2.259       .  S
In248       O259   2.210       .  S
In248       O253   2.277       .  S
In248       O255   2.254       .  S
In248       O256   2.253       .  S
In248       O257   2.226       .  S
In248       O260   2.243       .  S
C249        O255   1.265       .  A
C249        O257   1.256       .  A
C249        C271   1.459       .  S
O250        C258   1.259       .  A
O251        C258   1.266       .  A
C252        O259   1.258       .  A
C252        O253   1.264       .  A
C252        C382   1.463       .  S
C254        O256   1.266       .  A
C254        O260   1.261       .  A
C254        C293   1.469       .  S
In261       O263   2.236       .  S
In261       O264   2.244       .  S
In261       O272   2.198       .  S
In261       O266   2.279       .  S
In261       O268   2.259       .  S
In261       O269   2.236       .  S
In261       O270   2.222       .  S
In261       O273   2.247       .  S
C262        O268   1.267       .  A
C262        O270   1.257       .  A
O263        C271   1.259       .  A
O264        C271   1.264       .  A
C265        O272   1.257       .  A
C265        O266   1.267       .  A
C267        O269   1.263       .  A
C267        O273   1.262       .  A
C267        C280   1.464       .  S
In274       O276   2.231       .  S
In274       O277   2.262       .  S
In274       O285   2.298       .  S
In274       O279   2.223       .  S
In274       O281   2.284       .  S
In274       O282   2.249       .  S
In274       O283   2.223       .  S
In274       O286   2.243       .  S
C275        O281   1.265       .  A
C275        O283   1.258       .  A
C275        C834   1.481       .  S
O276        C284   1.260       .  A
O277        C284   1.262       .  A
C278        O285   1.259       .  A
C278        O279   1.253       .  A
C278        C330   1.466   1_655  S
C280        O282   1.262       .  A
C280        O286   1.259       .  A
C284        C853   1.487       .  S
In287       O289   2.236       .  S
In287       O290   2.256       .  S
In287       O298   2.273       .  S
In287       O292   2.227       .  S
In287       O294   2.291       .  S
In287       O295   2.241       .  S
In287       O296   2.181       .  S
In287       O299   2.251       .  S
C288        O294   1.269       .  A
C288        O296   1.250       .  A
C288        C818   1.480       .  S
O289        C297   1.258       .  A
O290        C297   1.266       .  A
C291        O298   1.260       .  A
C291        O292   1.258       .  A
C291        C577   1.464       .  S
C293        O295   1.264       .  A
C293        O299   1.262       .  A
C297        C837   1.489       .  S
In300       O302   2.241       .  S
In300       O303   2.239       .  S
In300       O311   2.297       .  S
In300       O305   2.206       .  S
In300       O307   2.287       .  S
In300       O308   2.240       .  S
In300       O309   2.204       .  S
In300       O312   2.253       .  S
C301        O307   1.268       .  A
C301        O309   1.255       .  A
C301        C850   1.478       .  S
O302        C310   1.257       .  A
O303        C310   1.259       .  A
C304        O311   1.259       .  A
C304        O305   1.251       .  A
C306        O308   1.263       .  A
C306        O312   1.262       .  A
C310        C821   1.460       .  S
In313       O315   2.254       .  S
In313       O316   2.231       .  S
In313       O324   2.193       .  S
In313       O318   2.279       .  S
In313       O320   2.254       .  S
In313       O321   2.246       .  S
In313       O322   2.216       .  S
In313       O325   2.246       .  S
C314        O320   1.268       .  A
C314        O322   1.257       .  A
C314        C332   1.459       .  S
O315        C323   1.262       .  A
O316        C323   1.263       .  A
C317        O324   1.258       .  A
C317        O318   1.267       .  A
C317        C460   1.463       .  S
C319        O321   1.264       .  A
C319        O325   1.259       .  A
C319        C340   1.464       .  S
C323        C375   1.466       .  S
In326       O328   2.253       .  S
In326       O329   2.243       .  S
In326       O337   2.201       .  S
In326       O331   2.289       .  S
In326       O333   2.270       .  S
In326       O334   2.240       .  S
In326       O335   2.240       .  S
In326       O338   2.238       .  S
C327        O333   1.267       .  A
C327        O335   1.257       .  A
C327        C345   1.471       .  S
O328        C336   1.263       .  A
O329        C336   1.263       .  A
C330        O337   1.257       .  A
C330        O331   1.267       .  A
C332        O334   1.265       .  A
C332        O338   1.259       .  A
C336        C362   1.468       .  S
In339       O341   2.260       .  S
In339       O342   2.251       .  S
In339       O350   2.190       .  S
In339       O344   2.286       .  S
In339       O346   2.258       .  S
In339       O347   2.258       .  S
In339       O348   2.219       .  S
In339       O351   2.254       .  S
C340        O346   1.269       .  A
C340        O348   1.259       .  A
O341        C349   1.261       .  A
O342        C349   1.263       .  A
C343        O350   1.258       .  A
C343        O344   1.268       .  A
C345        O347   1.265       .  A
C345        O351   1.259       .  A
C349        C388   1.475       .  S
In352       O354   2.252       .  S
In352       O355   2.249       .  S
In352       O363   2.290       .  S
In352       O357   2.196       .  S
In352       O359   2.276       .  S
In352       O360   2.234       .  S
In352       O361   2.196       .  S
In352       O364   2.241       .  S
C353        O359   1.268       .  A
C353        O361   1.256       .  A
C353        C786   1.473       .  S
O354        C362   1.261       .  A
O355        C362   1.262       .  A
C356        O363   1.260       .  A
C356        O357   1.251       .  A
C356        C421   1.457   1_556  S
C358        O360   1.262       .  A
C358        O364   1.256       .  A
C358        C802   1.464       .  S
In365       O367   2.242       .  S
In365       O368   2.250       .  S
In365       O376   2.291       .  S
In365       O370   2.215       .  S
In365       O372   2.280       .  S
In365       O373   2.261       .  S
In365       O374   2.214       .  S
In365       O377   2.220       .  S
C366        O372   1.265       .  A
C366        O374   1.257       .  A
C366        C770   1.474       .  S
O367        C375   1.260       .  A
O368        C375   1.262       .  A
C369        O376   1.259       .  A
C369        O370   1.251       .  A
C371        O373   1.263       .  A
C371        O377   1.259       .  A
C371        C789   1.483       .  S
In378       O380   2.263       .  S
In378       O381   2.251       .  S
In378       O389   2.281       .  S
In378       O383   2.232       .  S
In378       O385   2.221       .  S
In378       O386   2.249       .  S
In378       O387   2.288       .  S
In378       O390   2.235       .  S
C379        O385   1.253       .  A
C379        O387   1.265       .  A
C379        C805   1.474       .  S
O380        C388   1.264       .  A
O381        C388   1.263       .  A
C382        O389   1.257       .  A
C382        O383   1.254       .  A
C384        O386   1.264       .  A
C384        O390   1.257       .  A
C384        C773   1.486       .  S
In391       O393   2.235       .  S
In391       O394   2.239       .  S
In391       O402   2.196       .  S
In391       O396   2.274       .  S
In391       O398   2.256       .  S
In391       O399   2.232       .  S
In391       O400   2.226       .  S
In391       O403   2.248       .  S
C392        O398   1.266       .  A
C392        O400   1.256       .  A
C392        C414   1.461       .  S
O393        C401   1.258       .  A
O394        C401   1.264       .  A
C395        O402   1.258       .  A
C395        O396   1.267       .  A
C395        C590   1.462   1_455  S
C397        O399   1.263       .  A
C397        O403   1.263       .  A
C397        C462   1.464       .  S
C401        C418   1.456       .  S
In404       O406   2.239       .  S
In404       O407   2.245       .  S
In404       O415   2.204       .  S
In404       O409   2.287       .  S
In404       O411   2.262       .  S
In404       O412   2.241       .  S
In404       O413   2.228       .  S
In404       O416   2.250       .  S
C405        O411   1.267       .  A
C405        O413   1.256       .  A
C405        C427   1.464       .  S
O406        C414   1.259       .  A
O407        C414   1.264       .  A
C408        O415   1.257       .  A
C408        O409   1.267       .  A
C410        O412   1.264       .  A
C410        O416   1.262       .  A
C410        C449   1.466       .  S
In417       O419   2.244       .  S
In417       O420   2.250       .  S
In417       O428   2.182       .  S
In417       O422   2.277       .  S
In417       O424   2.248       .  S
In417       O425   2.236       .  S
In417       O426   2.215       .  S
In417       O429   2.245       .  S
C418        O424   1.267       .  A
C418        O426   1.257       .  A
O419        C427   1.259       .  A
O420        C427   1.265       .  A
C421        O428   1.257       .  A
C421        O422   1.266       .  A
C423        O425   1.263       .  A
C423        O429   1.261       .  A
C423        C436   1.465       .  S
In430       O432   2.236       .  S
In430       O433   2.251       .  S
In430       O441   2.296       .  S
In430       O435   2.224       .  S
In430       O437   2.282       .  S
In430       O438   2.243       .  S
In430       O439   2.227       .  S
In430       O442   2.249       .  S
C431        O437   1.265       .  A
C431        O439   1.256       .  A
C431        C741   1.477       .  S
O432        C440   1.261       .  A
O433        C440   1.261       .  A
C434        O441   1.258       .  A
C434        O435   1.253       .  A
C436        O438   1.261       .  A
C436        O442   1.261       .  A
C440        C754   1.491       .  S
In443       O445   2.231       .  S
In443       O446   2.248       .  S
In443       O454   2.291       .  S
In443       O448   2.215       .  S
In443       O450   2.269       .  S
In443       O451   2.255       .  S
In443       O452   2.214       .  S
In443       O455   2.253       .  S
C444        O450   1.266       .  A
C444        O452   1.258       .  A
C444        C722   1.467       .  S
O445        C453   1.258       .  A
O446        C453   1.265       .  A
C447        O454   1.259       .  A
C447        O448   1.252       .  A
C447        C564   1.462       .  S
C449        O451   1.262       .  A
C449        O455   1.258       .  A
C453        C738   1.486       .  S
In456       O458   2.229       .  S
In456       O459   2.255       .  S
In456       O467   2.298       .  S
In456       O461   2.214       .  S
In456       O463   2.270       .  S
In456       O464   2.255       .  S
In456       O465   2.217       .  S
In456       O468   2.245       .  S
C457        O463   1.266       .  A
C457        O465   1.257       .  A
C457        C757   1.472       .  S
O458        C466   1.260       .  A
O459        C466   1.262       .  A
C460        O467   1.259       .  A
C460        O461   1.251       .  A
C462        O464   1.262       .  A
C462        O468   1.258       .  A
C466        C725   1.483       .  S
In469       O471   2.248       .  S
In469       O472   2.241       .  S
In469       O480   2.189       .  S
In469       O474   2.288       .  S
In469       O476   2.258       .  S
In469       O477   2.240       .  S
In469       O478   2.233       .  S
In469       O481   2.247       .  S
C470        O476   1.267       .  A
C470        O478   1.257       .  A
C470        C492   1.466       .  S
O471        C479   1.260       .  A
O472        C479   1.264       .  A
C473        O480   1.256       .  A
C473        O474   1.266       .  A
C473        C603   1.462       .  S
C475        O477   1.263       .  A
C475        O481   1.262       .  A
C475        C527   1.464       .  S
C479        C496   1.465       .  S
In482       O484   2.242       .  S
In482       O485   2.255       .  S
In482       O493   2.198       .  S
In482       O487   2.283       .  S
In482       O489   2.255       .  S
In482       O490   2.243       .  S
In482       O491   2.223       .  S
In482       O494   2.250       .  S
C483        O489   1.267       .  A
C483        O491   1.257       .  A
C483        C505   1.461       .  S
O484        C492   1.259       .  A
O485        C492   1.265       .  A
C486        O493   1.258       .  A
C486        O487   1.266       .  A
C488        O490   1.265       .  A
C488        O494   1.262       .  A
C488        C514   1.468       .  S
In495       O497   2.239       .  S
In495       O498   2.245       .  S
In495       O506   2.198       .  S
In495       O500   2.281       .  S
In495       O502   2.267       .  S
In495       O503   2.247       .  S
In495       O504   2.225       .  S
In495       O507   2.255       .  S
C496        O502   1.265       .  A
C496        O504   1.255       .  A
O497        C505   1.259       .  A
O498        C505   1.265       .  A
C499        O506   1.257       .  A
C499        O500   1.267       .  A
C501        O503   1.264       .  A
C501        O507   1.263       .  A
C501        C540   1.471       .  S
In508       O510   2.231       .  S
In508       O511   2.264       .  S
In508       O519   2.277   1_565  S
In508       O513   2.225   1_565  S
In508       O515   2.207       .  S
In508       O516   2.249       .  S
In508       O517   2.291       .  S
In508       O520   2.246       .  S
C509        O515   1.251       .  A
C509        O517   1.266       .  A
C509        C690   1.473       .  S
O510        C518   1.261       .  A
O511        C518   1.264       .  A
C512        O519   1.258       .  A
C512        O513   1.256       .  A
C512        C551   1.461       .  S
C514        O516   1.264       .  A
C514        O520   1.261       .  A
C518        C706   1.478       .  S
In521       O523   2.241       .  S
In521       O524   2.235       .  S
In521       O532   2.284       .  S
In521       O526   2.209       .  S
In521       O528   2.281       .  S
In521       O529   2.244       .  S
In521       O530   2.209       .  S
In521       O533   2.249       .  S
C522        O528   1.266       .  A
C522        O530   1.257       .  A
C522        C674   1.469       .  S
O523        C531   1.260       .  A
O524        C531   1.261       .  A
C525        O532   1.258       .  A
C525        O526   1.253       .  A
C527        O529   1.262       .  A
C527        O533   1.261       .  A
C531        C693   1.462       .  S
In534       O536   2.239       .  S
In534       O537   2.254       .  S
In534       O545   2.312       .  S
In534       O539   2.211       .  S
In534       O541   2.200       .  S
In534       O542   2.253       .  S
In534       O543   2.287       .  S
In534       O546   2.254       .  S
C535        O541   1.253       .  A
C535        O543   1.268       .  A
C535        C709   1.485       .  S
O536        C544   1.257       .  A
O537        C544   1.261       .  A
C538        O545   1.261       .  A
C538        O539   1.250       .  A
C540        O542   1.263       .  A
C540        O546   1.261       .  A
C544        C677   1.470       .  S
In547       O549   2.247       .  S
In547       O550   2.239       .  S
In547       O558   2.204       .  S
In547       O552   2.279       .  S
In547       O554   2.264       .  S
In547       O555   2.246       .  S
In547       O556   2.231       .  S
In547       O559   2.237       .  S
C548        O554   1.264       .  A
C548        O556   1.255       .  A
C548        C579   1.464       .  S
O549        C557   1.262       .  A
O550        C557   1.264       .  A
C551        O558   1.256       .  A
C551        O552   1.265       .  A
C553        O555   1.264       .  A
C553        O559   1.258       .  A
C553        C561   1.460       .  S
C557        C596   1.465       .  S
In560       O562   2.248       .  S
In560       O563   2.246       .  S
In560       O571   2.196       .  S
In560       O565   2.278       .  S
In560       O567   2.253       .  S
In560       O568   2.249       .  S
In560       O569   2.223       .  S
In560       O572   2.241       .  S
C561        O567   1.267       .  A
C561        O569   1.257       .  A
O562        C570   1.262       .  A
O563        C570   1.265       .  A
C564        O571   1.259       .  A
C564        O565   1.267       .  A
C566        O568   1.266       .  A
C566        O572   1.259       .  A
C566        C574   1.464       .  S
C570        C622   1.468       .  S
In573       O575   2.255       .  S
In573       O576   2.252       .  S
In573       O584   2.208       .  S
In573       O578   2.287       .  S
In573       O580   2.261       .  S
In573       O581   2.235       .  S
In573       O582   2.228       .  S
In573       O585   2.247       .  S
C574        O580   1.267       .  A
C574        O582   1.256       .  A
O575        C583   1.262       .  A
O576        C583   1.265       .  A
C577        O584   1.255       .  A
C577        O578   1.266       .  A
C579        O581   1.264       .  A
C579        O585   1.260       .  A
C583        C609   1.471       .  S
In586       O588   2.252       .  S
In586       O589   2.259       .  S
In586       O597   2.291       .  S
In586       O591   2.216       .  S
In586       O593   2.262       .  S
In586       O594   2.233       .  S
In586       O595   2.228       .  S
In586       O598   2.248       .  S
C587        O593   1.265       .  A
C587        O595   1.259       .  A
C587        C642   1.472       .  S
O588        C596   1.257       .  A
O589        C596   1.261       .  A
C590        O597   1.259       .  A
C590        O591   1.252       .  A
C592        O594   1.261       .  A
C592        O598   1.260       .  A
C592        C658   1.472       .  S
In599       O601   2.255       .  S
In599       O602   2.256       .  S
In599       O610   2.310       .  S
In599       O604   2.210       .  S
In599       O606   2.225       .  S
In599       O607   2.282       .  S
In599       O608   2.260       .  S
In599       O611   2.218       .  S
C600        O606   1.256       .  A
C600        O608   1.264       .  A
C600        C661   1.469       .  S
O601        C609   1.262       .  A
O602        C609   1.265       .  A
C603        O610   1.258       .  A
C603        O604   1.247       .  A
C605        O607   1.262       .  A
C605        O611   1.253       .  A
C605        C626   1.470       .  S
In612       O614   2.251       .  S
In612       O615   2.246       .  S
In612       O623   2.284       .  S
In612       O617   2.224       .  S
In612       O619   2.294       .  S
In612       O620   2.261       .  S
In612       O621   2.182       .  S
In612       O624   2.231       .  S
C613        O619   1.267       .  A
C613        O621   1.255       .  A
C613        C629   1.487       .  S
O614        C622   1.261       .  A
O615        C622   1.263       .  A
C616        O623   1.259       .  A
C616        O617   1.254       .  A
C618        O620   1.262       .  A
C618        O624   1.260       .  A
C618        C645   1.491       .  S
C625        C626   1.405       .  A
C625        C630   1.417       .  A
C625        H632   1.083       .  S
C626        C627   1.414       .  A
C627        C628   1.391       .  A
C627        C634   1.524       .  S
C628        C629   1.405       .  A
C628        H633   1.082       .  S
C629        C630   1.421       .  A
C630        C631   1.516       .  S
C631        F635   1.385       .  S
C631        F636   1.382       .  S
C631        F637   1.384       .  S
C634        F638   1.383       .  S
C634        F639   1.381       .  S
C634        F640   1.384       .  S
C641        C642   1.401       .  A
C641        C646   1.408       .  A
C641        H648   1.084       .  S
C642        C643   1.410       .  A
C643        C644   1.406       .  A
C643        C650   1.517       .  S
C644        C645   1.411       .  A
C644        H649   1.083       .  S
C645        C646   1.423       .  A
C646        C647   1.520       .  S
C647        F651   1.385       .  S
C647        F652   1.383       .  S
C647        F653   1.384       .  S
C650        F654   1.383       .  S
C650        F655   1.382       .  S
C650        F656   1.385       .  S
C657        C658   1.405       .  A
C657        C662   1.411       .  A
C657        H664   1.084       .  S
C658        C659   1.414       .  A
C659        C660   1.401       .  A
C659        C666   1.521       .  S
C660        C661   1.400       .  A
C660        H665   1.085       .  S
C661        C662   1.414       .  A
C662        C663   1.515       .  S
C663        F667   1.384       .  S
C663        F668   1.383       .  S
C663        F669   1.382       .  S
C666        F670   1.382       .  S
C666        F671   1.384       .  S
C666        F672   1.379       .  S
C673        C674   1.399       .  A
C673        C678   1.397       .  A
C673        H680   1.085       .  S
C674        C675   1.411       .  A
C675        C676   1.413       .  A
C675        C682   1.513       .  S
C676        C677   1.407       .  A
C676        H681   1.084       .  S
C677        C678   1.416       .  A
C678        C679   1.522       .  S
C679        F683   1.382       .  S
C679        F684   1.382       .  S
C679        F685   1.382       .  S
C682        F686   1.383       .  S
C682        F687   1.383       .  S
C682        F688   1.385       .  S
C689        C690   1.407       .  A
C689        C694   1.414       .  A
C689        H696   1.084       .  S
C690        C691   1.422       .  A
C691        C692   1.393       .  A
C691        C698   1.524       .  S
C692        C693   1.393       .  A
C692        H697   1.085       .  S
C693        C694   1.412       .  A
C694        C695   1.514       .  S
C695        F699   1.384       .  S
C695        F700   1.383       .  S
C695        F701   1.383       .  S
C698        F702   1.378       .  S
C698        F703   1.383       .  S
C698        F704   1.385       .  S
C705        C706   1.401       .  A
C705        C710   1.400       .  A
C705        H712   1.084       .  S
C706        C707   1.412       .  A
C707        C708   1.412       .  A
C707        C714   1.515       .  S
C708        C709   1.409       .  A
C708        H713   1.083       .  S
C709        C710   1.424       .  A
C710        C711   1.524       .  S
C711        F715   1.385       .  S
C711        F716   1.384       .  S
C711        F717   1.383       .  S
C714        F718   1.382       .  S
C714        F719   1.384       .  S
C714        F720   1.384       .  S
C721        C722   1.401       .  A
C721        C726   1.407       .  A
C721        H728   1.084       .  S
C722        C723   1.409       .  A
C723        C724   1.405       .  A
C723        C730   1.516       .  S
C724        C725   1.408       .  A
C724        H729   1.084       .  S
C725        C726   1.421       .  A
C726        C727   1.520       .  S
C727        F731   1.384       .  S
C727        F732   1.384       .  S
C727        F733   1.383       .  S
C730        F734   1.382       .  S
C730        F735   1.383       .  S
C730        F736   1.385       .  S
C737        C738   1.403       .  A
C737        C742   1.404       .  A
C737        H744   1.083       .  S
C738        C739   1.422       .  A
C739        C740   1.408       .  A
C739        C746   1.518       .  S
C740        C741   1.401       .  A
C740        H745   1.084       .  S
C741        C742   1.415       .  A
C742        C743   1.512       .  S
C743        F747   1.385       .  S
C743        F748   1.382       .  S
C743        F749   1.377       .  S
C746        F750   1.384       .  S
C746        F751   1.382       .  S
C746        F752   1.385       .  S
C753        C754   1.409       .  A
C753        C758   1.404       .  A
C753        H760   1.083       .  S
C754        C755   1.424       .  A
C755        C756   1.409       .  A
C755        C762   1.519       .  S
C756        C757   1.401       .  A
C756        H761   1.084       .  S
C757        C758   1.411       .  A
C758        C759   1.518       .  S
C759        F763   1.385       .  S
C759        F764   1.382       .  S
C759        F765   1.383       .  S
C762        F766   1.383       .  S
C762        F767   1.384       .  S
C762        F768   1.385       .  S
C769        C770   1.400       .  A
C769        C774   1.406       .  A
C769        H776   1.084       .  S
C770        C771   1.413       .  A
C771        C772   1.405       .  A
C771        C778   1.513       .  S
C772        C773   1.405       .  A
C772        H777   1.083       .  S
C773        C774   1.425       .  A
C774        C775   1.520       .  S
C775        F779   1.385       .  S
C775        F780   1.383       .  S
C775        F781   1.383       .  S
C778        F782   1.378       .  S
C778        F783   1.382       .  S
C778        F784   1.385       .  S
C785        C786   1.403       .  A
C785        C790   1.411       .  A
C785        H792   1.084       .  S
C786        C787   1.415       .  A
C787        C788   1.398       .  A
C787        C794   1.520       .  S
C788        C789   1.405       .  A
C788        H793   1.084       .  S
C789        C790   1.419       .  A
C790        C791   1.516       .  S
C791        F795   1.385       .  S
C791        F796   1.384       .  S
C791        F797   1.382       .  S
C794        F798   1.384       .  S
C794        F799   1.383       .  S
C794        F800   1.385       .  S
C801        C802   1.392       .  A
C801        C806   1.389       .  A
C801        H808   1.085       .  S
C802        C803   1.416       .  A
C803        C804   1.417       .  A
C803        C810   1.515       .  S
C804        C805   1.406       .  A
C804        H809   1.083       .  S
C805        C806   1.417       .  A
C806        C807   1.514       .  S
C807        F811   1.384       .  S
C807        F812   1.382       .  S
C807        F813   1.368       .  S
C810        F814   1.383       .  S
C810        F815   1.383       .  S
C810        F816   1.384       .  S
C817        C818   1.410       .  A
C817        C822   1.413       .  A
C817        H824   1.083       .  S
C818        C819   1.428       .  A
C819        C820   1.393       .  A
C819        C826   1.527       .  S
C820        C821   1.393       .  A
C820        H825   1.085       .  S
C821        C822   1.409       .  A
C822        C823   1.514       .  S
C823        F827   1.384       .  S
C823        F828   1.383       .  S
C823        F829   1.383       .  S
C826        F830   1.383       .  S
C826        F831   1.384       .  S
C826        F832   1.385       .  S
C833        C834   1.401       .  A
C833        C838   1.406       .  A
C833        H840   1.084       .  S
C834        C835   1.416       .  A
C835        C836   1.408       .  A
C835        C842   1.515       .  S
C836        C837   1.405       .  A
C836        H841   1.083       .  S
C837        C838   1.425       .  A
C838        C839   1.522       .  S
C839        F843   1.385       .  S
C839        F844   1.383       .  S
C839        F845   1.383       .  S
C842        F846   1.382       .  S
C842        F847   1.380       .  S
C842        F848   1.385       .  S
C849        C850   1.404       .  A
C849        C854   1.412       .  A
C849        H856   1.084       .  S
C850        C851   1.416       .  A
C851        C852   1.400       .  A
C851        C858   1.518       .  S
C852        C853   1.405       .  A
C852        H857   1.084       .  S
C853        C854   1.421       .  A
C854        C855   1.516       .  S
C855        F859   1.385       .  S
C855        F860   1.382       .  S
C855        F861   1.384       .  S
C858        F862   1.383       .  S
C858        F863   1.384       .  S
C858        F864   1.385       .  S
C865        C866   1.401       .  A
C865        C870   1.407       .  A
C865        H872   1.084       .  S
C866        C867   1.416       .  A
C867        C868   1.404       .  A
C867        C874   1.512       .  S
C868        C869   1.403       .  A
C868        H873   1.083       .  S
C869        C870   1.421       .  A
C870        C871   1.518       .  S
C871        F875   1.385       .  S
C871        F876   1.383       .  S
C871        F877   1.384       .  S
C874        F878   1.377       .  S
C874        F879   1.382       .  S
C874        F880   1.385       .  S
C881        C882   1.405       .  A
C881        C886   1.416       .  A
C881        H888   1.084       .  S
C882        C883   1.413       .  A
C883        C884   1.395       .  A
C883        C890   1.509       .  S
C884        C885   1.394       .  A
C884        H889   1.083       .  S
C885        C886   1.419       .  A
C886        C887   1.516       .  S
C887        F891   1.385       .  S
C887        F892   1.382       .  S
C887        F893   1.384       .  S
C890        F894   1.384       .  S
C890        F895   1.380       .  S
C890        F896   1.382       .  S
C897        C898   1.401       .  A
C897        C902   1.409       .  A
C897        H904   1.084       .  S
C898        C899   1.414       .  A
C899        C900   1.400       .  A
C899        C906   1.512       .  S
C900        C901   1.401       .  A
C900        H905   1.083       .  S
C901        C902   1.420       .  A
C902        C903   1.516       .  S
C903        F907   1.385       .  S
C903        F908   1.383       .  S
C903        F909   1.384   1_565  S
C906        F910   1.381       .  S
C906        F911   1.382       .  S
C906        F912   1.385       .  S
C913        C914   1.405       .  A
C913        C918   1.412       .  A
C913        H920   1.083       .  S
C914        C915   1.417       .  A
C915        C916   1.398       .  A
C915        C922   1.521       .  S
C916        C917   1.403       .  A
C916        H921   1.084       .  S
C917        C918   1.415       .  A
C918        C919   1.515       .  S
C919        F923   1.384       .  S
C919        F924   1.382       .  S
C919        F925   1.384       .  S
C922        F926   1.383       .  S
C922        F927   1.384       .  S
C922        F928   1.385       .  S
C929        C930   1.402       .  A
C929        C934   1.409       .  A
C929        H936   1.084       .  S
C930        C931   1.411       .  A
C931        C932   1.405       .  A
C931        C938   1.518       .  S
C932        C933   1.408       .  A
C932        H937   1.084       .  S
C933        C934   1.422       .  A
C934        C935   1.520       .  S
C935        F939   1.385       .  S
C935        F940   1.384       .  S
C935        F941   1.383       .  S
C938        F942   1.382       .  S
C938        F943   1.383       .  S
C938        F944   1.385       .  S
C945        C946   1.393       .  A
C945        C950   1.393       .  A
C945        H952   1.085       .  S
C946        C947   1.412       .  A
C947        C948   1.413       .  A
C947        C954   1.515       .  S
C948        C949   1.407       .  A
C948        H953   1.084       .  S
C949        C950   1.423       .  A
C950        C951   1.523       .  S
C951        F955   1.385       .  S
C951        F956   1.377       .  S
C951        F957   1.383       .  S
C954        F958   1.383       .  S
C954        F959   1.383       .  S
C954        F960   1.384       .  S
C961        C962   1.406       .  A
C961        C966   1.413       .  A
C961        H968   1.083       .  S
C962        C963   1.418       .  A
C963        C964   1.399       .  A
C963        C970   1.521       .  S
C964        C965   1.403       .  A
C964        H969   1.084       .  S
C965        C966   1.416       .  A
C966        C967   1.516       .  S
C967        F971   1.384       .  S
C967        F972   1.384       .  S
C967        F973   1.382       .  S
C970        F974   1.384       .  S
C970        F975   1.383       .  S
C970        F976   1.385       .  S
C977        C978   1.401       .  A
C977        C982   1.408       .  A
C977        H984   1.084       .  S
C978        C979   1.409       .  A
C979        C980   1.405       .  A
C979        C986   1.517       .  S
C980        C981   1.409       .  A
C980        H985   1.083       .  S
C981        C982   1.422       .  A
C982        C983   1.519       .  S
C983        F987   1.385       .  S
C983        F988   1.383       .  S
C983        F989   1.384       .  S
C986        F990   1.383       .  S
C986        F991   1.381       .  S
C986        F992   1.385       .  S
C993        C994   1.408       .  A
C993        C998   1.409       .  A
C993       H1000   1.083       .  S
C994        C995   1.425       .  A
C995        C996   1.403       .  A
C995       C1002   1.520       .  S
C996        C997   1.399       .  A
C996       H1001   1.084       .  S
C997        C998   1.412       .  A
C998        C999   1.515       .  S
C999       F1003   1.385       .  S
C999       F1004   1.381       .  S
C999       F1005   1.383       .  S
C1002      F1006   1.382       .  S
C1002      F1007   1.383       .  S
C1002      F1008   1.385       .  S
