geometry optimzed in LAMMPS
_audit_creation_date              2020-11-30 
_audit_creation_method            'lammps2cif' 
_symmetry_space_group_name_H-M    'P1' 
_symmetry_Int_Tables_number       1 
_symmetry_cell_setting            triclinic 
loop_ 
_symmetry_equiv_pos_as_xyz 
  x,y,z 
_cell_length_a                    84.81707361 
_cell_length_b                    41.326690179974 
_cell_length_c                    63.883021919892485 
_cell_angle_alpha                 90.07834587266002 
_cell_angle_beta                  90.0862783632861 
_cell_angle_gamma                 89.98147549629424 
loop_ 
_atom_site_label 
_atom_site_type_symbol 
_atom_site_fract_x 
_atom_site_fract_y 
_atom_site_fract_z 
_atom_site_charge 
N1          N  0.10538084  0.94353917  0.04275578    -0.27200
N2          N  0.11644426  0.92775918  0.03240263    -0.35000
C3          C  0.12768030  0.91824224  0.04591650     0.01200
C4          C  0.12357111  0.92849425  0.06590229     0.07200
C5          C  0.10927910  0.94445083  0.06317401    -0.05900
H6          H  0.13816668  0.90522305  0.04129429     0.07900
H7          H  0.10231656  0.95654632  0.07498790     0.09100
Cu8        Cu  0.11621548  0.92118237  0.00019361     0.44200
Cu9        Cu  0.08586216  0.96421566  0.02833718     0.42000
Cu10       Cu  0.08306155  0.95404787  0.97177000     0.43900
N11         N  0.11426993  0.91988189  0.96781865    -0.34500
N12         N  0.10212889  0.93174916  0.95738990    -0.28800
C13         C  0.10507337  0.92963839  0.93674952    -0.04900
C14         C  0.11988810  0.91589498  0.93392598     0.07300
C15         C  0.12526561  0.90992916  0.95411491     0.01100
H16         H  0.09723192  0.93889190  0.92482509     0.08800
H17         H  0.13664749  0.90055167  0.95871792     0.07800
N18         N  0.06660017  0.97893492  0.98963580    -0.36000
N19         N  0.06767823  0.98278750  0.01012839    -0.28200
C20         C  0.05532263  0.00037255  0.01678797    -0.03400
C21         C  0.04593312  0.00807231  0.99967749     0.05200
C22         C  0.05353488  0.99399746  0.98272491     0.03300
H23         H  0.05346656  0.00717456  0.03294379     0.08400
H24         H  0.04985489  0.99436588  0.96651662     0.07200
C25         C  0.18863521  0.22682529  0.30706372     0.03300
C26         C  0.19893941  0.25089399  0.29979987    -0.12900
C27         C  0.20928202  0.24430111  0.28315520     0.00800
C28         C  0.20914899  0.21346028  0.27384520    -0.11400
C29         C  0.19902348  0.18909966  0.28112025     0.03200
C30         C  0.18879753  0.19612130  0.29772725    -0.10800
H31         H  0.19904195  0.27446312  0.30725256     0.08800
H32         H  0.21680524  0.20863158  0.26064788     0.06400
H33         H  0.18132101  0.17726330  0.30404318     0.06200
C34         C  0.19094320  0.92815117  0.19430474     0.03300
C35         C  0.19069645  0.95855665  0.20409216    -0.12900
C36         C  0.20131292  0.96607673  0.22014155     0.00800
C37         C  0.21226459  0.94276223  0.22663219    -0.11400
C38         C  0.21250165  0.91172546  0.21753894     0.03200
C39         C  0.20192140  0.90477499  0.20106437    -0.10800
H40         H  0.18258204  0.97700172  0.19865986     0.08800
H41         H  0.22052050  0.94879108  0.23898979     0.06400
H42         H  0.20187862  0.88098945  0.19392881     0.06200
C43         C  0.19052969  0.22391016  0.69713457     0.03300
C44         C  0.20073055  0.24798319  0.70461466    -0.12900
C45         C  0.21087909  0.24163380  0.72155915     0.00800
C46         C  0.21086067  0.21058572  0.73065551    -0.11400
C47         C  0.20067364  0.18636481  0.72325021     0.03200
C48         C  0.19059254  0.19331131  0.70647265    -0.10800
H49         H  0.20044601  0.27180151  0.69756033     0.08800
H50         H  0.21870592  0.20529093  0.74359679     0.06400
H51         H  0.18301466  0.17451180  0.70021662     0.06200
C52         C  0.18603006  0.92251495  0.80480203     0.03300
C53         C  0.18700491  0.95406793  0.79689772    -0.12900
C54         C  0.19715464  0.96145403  0.78031398     0.00800
C55         C  0.20632886  0.93686386  0.77138875    -0.11400
C56         C  0.20542543  0.90493526  0.77886633     0.03200
C57         C  0.19532564  0.89799555  0.79580880    -0.10800
H58         H  0.18009351  0.97318744  0.80403805     0.08800
H59         H  0.21423578  0.94270313  0.75863582     0.06400
H60         H  0.19447937  0.87353134  0.80177073     0.06200
N61         N  0.10743276  0.19784864  0.46080618    -0.27200
N62         N  0.11820394  0.21475582  0.47097649    -0.35000
C63         C  0.12910146  0.22530023  0.45739843     0.01200
C64         C  0.12506390  0.21456510  0.43754353     0.07200
C65         C  0.11119396  0.19722399  0.44035435    -0.05900
H66         H  0.13923724  0.23961494  0.46183956     0.07900
H67         H  0.10445236  0.18451731  0.42855054     0.09100
Cu68       Cu  0.11817789  0.22134400  0.50294310     0.44200
Cu69       Cu  0.08838203  0.17621616  0.47565974     0.42000
Cu70       Cu  0.08647274  0.18412246  0.53227768     0.43900
N71         N  0.11728975  0.22005010  0.53515534    -0.34500
N72         N  0.10584178  0.20627861  0.54591510    -0.28800
C73         C  0.10951768  0.20726196  0.56636293    -0.04900
C74         C  0.12405423  0.22233162  0.56863511     0.07300
C75         C  0.12854860  0.23017240  0.54840728     0.01100
H76         H  0.10234798  0.19653645  0.57848075     0.08800
H77         H  0.13940541  0.24143826  0.54341809     0.07800
N78         N  0.06925416  0.16145117  0.51450069    -0.36000
N79         N  0.07008953  0.15841461  0.49394606    -0.28200
C80         C  0.05728750  0.14246944  0.48711351    -0.03400
C81         C  0.04780750  0.13495481  0.50415730     0.05200
C82         C  0.05587027  0.14748221  0.52129061     0.03300
H83         H  0.05515475  0.13697209  0.47081548     0.08400
H84         H  0.05240474  0.14644296  0.53755328     0.07200
C85         C  0.30342787  0.41797859  0.19255935     0.03300
C86         C  0.30303583  0.44995851  0.19988868    -0.12900
C87         C  0.29235122  0.45949884  0.21540044     0.00800
C88         C  0.28189674  0.43647367  0.22361253    -0.11400
C89         C  0.28191410  0.40435041  0.21633355     0.03200
C90         C  0.29271382  0.39527093  0.20063017    -0.10800
H91         H  0.31086362  0.46772382  0.19302263     0.08800
H92         H  0.27403543  0.44333751  0.23620435     0.06400
H93         H  0.29283704  0.37067333  0.19474752     0.06200
C94         C  0.30138051  0.71834827  0.30352426     0.03300
C95         C  0.29196470  0.74361528  0.29553792    -0.12900
C96         C  0.28248584  0.73880627  0.27755164     0.00800
C97         C  0.28235527  0.70808375  0.26799978    -0.11400
C98         C  0.29179081  0.68291710  0.27564283     0.03200
C99         C  0.30115320  0.68815718  0.29336576    -0.10800
H100        H  0.29244510  0.76719366  0.30291624     0.08800
H101        H  0.27492883  0.70359079  0.25449968     0.06400
H102        H  0.30805625  0.66824682  0.29952485     0.06200
N103        N  0.38824457  0.44382552  0.04351442    -0.27200
N104        N  0.37637826  0.43137267  0.03283370    -0.35000
C105        C  0.36570235  0.41940006  0.04617486     0.01200
C106        C  0.37099596  0.42442260  0.06647066     0.07200
C107        C  0.38540737  0.44006884  0.06410123    -0.05900
H108        H  0.35474920  0.40847042  0.04120355     0.07900
H109        H  0.39315890  0.44873860  0.07632729     0.09100
Cu110      Cu  0.37468940  0.43158802  0.00066226     0.44200
Cu111      Cu  0.40719419  0.46628215  0.02905162     0.42000
Cu112      Cu  0.40594590  0.46834992  0.97153822     0.43900
N113        N  0.37504049  0.43286697  0.96843588    -0.34500
N114        N  0.38653463  0.44623014  0.95756917    -0.28800
C115        C  0.38303082  0.44396283  0.93708613    -0.04900
C116        C  0.36855085  0.42842185  0.93491151     0.07300
C117        C  0.36392183  0.42175771  0.95526746     0.01100
H118        H  0.39035622  0.45383614  0.92483381     0.08800
H119        H  0.35311106  0.41040047  0.96034982     0.07800
N120        N  0.42366420  0.48917928  0.98971336    -0.36000
N121        N  0.42410286  0.48823050  0.01039754    -0.28200
C122        C  0.43697708  0.50410758  0.01713990    -0.03400
C123        C  0.44511895  0.51581276  0.99992231     0.05200
C124        C  0.43626629  0.50576990  0.98279552     0.03300
H125        H  0.43998409  0.50718877  0.03347196     0.08400
H126        H  0.43876748  0.50998051  0.96643520     0.07200
C127        C  0.30183461  0.42928542  0.80645999     0.03300
C128        C  0.29190907  0.40532430  0.79811958    -0.12900
C129        C  0.28231336  0.41199949  0.78059545     0.00800
C130        C  0.28265423  0.44315093  0.77178856    -0.11400
C131        C  0.29249444  0.46724018  0.78007343     0.03200
C132        C  0.30204128  0.46010941  0.79731878    -0.10800
H133        H  0.29199869  0.38134935  0.80494895     0.08800
H134        H  0.27514754  0.44885440  0.75856405     0.06400
H135        H  0.30940353  0.47892769  0.80399869     0.06200
C136        C  0.30185688  0.72774797  0.69311756     0.03300
C137        C  0.30185927  0.69698818  0.70242619    -0.12900
C138        C  0.29182564  0.68979469  0.71912127     0.00800
C139        C  0.28149746  0.71367304  0.72645816    -0.11400
C140        C  0.28120223  0.74474459  0.71749383     0.03200
C141        C  0.29135171  0.75154084  0.70056929    -0.10800
H142        H  0.30948096  0.67819544  0.69628891     0.08800
H143        H  0.27363969  0.70795500  0.73927383     0.06400
H144        H  0.29143608  0.77544795  0.69364966     0.06200
N145        N  0.38713200  0.70443052  0.54251810    -0.27200
N146        N  0.37556584  0.71812831  0.53187545    -0.35000
C147        C  0.36455229  0.72880305  0.54529276     0.01200
C148        C  0.36930511  0.72157681  0.56555489     0.07200
C149        C  0.38374898  0.70604286  0.56308148    -0.05900
H150        H  0.35371926  0.74032533  0.54041028     0.07900
H151        H  0.39120427  0.69609745  0.57520974     0.09100
Cu152      Cu  0.37458904  0.72039559  0.49951911     0.44200
Cu153      Cu  0.40661495  0.68321902  0.52823943     0.42000
Cu154      Cu  0.40621895  0.68306893  0.47091872     0.43900
N155        N  0.37485361  0.71726786  0.46716460    -0.34500
N156        N  0.38639458  0.70343107  0.45657537    -0.28800
C157        C  0.38260583  0.70347814  0.43610625    -0.04900
C158        C  0.36788702  0.71798558  0.43359464     0.07300
C159        C  0.36343954  0.72647729  0.45377908     0.01100
H160        H  0.38994417  0.69291155  0.42408979     0.08800
H161        H  0.35247332  0.73750606  0.45861374     0.07800
N162        N  0.42416405  0.66278693  0.48914361    -0.36000
N163        N  0.42427120  0.66286898  0.50984131    -0.28200
C164        C  0.43713749  0.64694105  0.51663576    -0.03400
C165        C  0.44564150  0.63604044  0.49943171     0.05200
C166        C  0.43698138  0.64676561  0.48227236     0.03300
H167        H  0.43988447  0.64328842  0.53298912     0.08400
H168        H  0.43954398  0.64275019  0.46590647     0.07200
N169        N  0.60576459  0.70536776  0.95502679    -0.27200
N170        N  0.61653760  0.72181900  0.96552953    -0.35000
C171        C  0.62730192  0.73336093  0.95207694     0.01200
C172        C  0.62319617  0.72368521  0.93200755     0.07200
C173        C  0.60940071  0.70602347  0.93455430    -0.05900
H174        H  0.63756596  0.74706442  0.95679298     0.07900
H175        H  0.60275594  0.69346216  0.92259240     0.09100
Cu176      Cu  0.61726035  0.72523972  0.99779834     0.44200
Cu177      Cu  0.58714744  0.68122332  0.96915436     0.42000
Cu178      Cu  0.58803596  0.68047553  0.02619889     0.43900
N179        N  0.61760109  0.72036116  0.02999565    -0.34500
N180        N  0.60702440  0.70356888  0.04053450    -0.28800
C181        C  0.61111689  0.70337944  0.06090021    -0.04900
C182        C  0.62501443  0.72085664  0.06332434     0.07300
C183        C  0.62869918  0.73125354  0.04328242     0.01100
H184        H  0.60469229  0.69048098  0.07287719     0.08800
H185        H  0.63886180  0.74515890  0.03848821     0.07800
N186        N  0.57001158  0.66037442  0.00823721    -0.36000
N187        N  0.56966632  0.66061985  0.98755037    -0.28200
C188        C  0.55627494  0.64638411  0.98096778    -0.03400
C189        C  0.54769139  0.63664091  0.99834502     0.05200
C190        C  0.55685979  0.64595440  0.01534084     0.03300
H191        H  0.55310449  0.64338705  0.96468015     0.08400
H192        H  0.55412892  0.64303319  0.03175368     0.07200
C193        C  0.68996995  0.42086919  0.30498529     0.03300
C194        C  0.68994382  0.45160640  0.29564853    -0.12900
C195        C  0.69996974  0.45862269  0.27885282     0.00800
C196        C  0.70993159  0.43437284  0.27109734    -0.11400
C197        C  0.71025639  0.40356612  0.28032942     0.03200
C198        C  0.70034556  0.39702384  0.29746375    -0.10800
H199        H  0.68219278  0.47029935  0.30163660     0.08800
H200        H  0.71787972  0.43985266  0.25831457     0.06400
H201        H  0.70045683  0.37327102  0.30462371     0.06200
C202        C  0.69266956  0.71903453  0.19114956     0.03300
C203        C  0.69258057  0.68829443  0.20043858    -0.12900
C204        C  0.70247069  0.68115634  0.21745245     0.00800
C205        C  0.71233220  0.70550510  0.22540859    -0.11400
C206        C  0.71244962  0.73654682  0.21645720     0.03200
C207        C  0.70267921  0.74310002  0.19915729    -0.10800
H208        H  0.68475694  0.66983471  0.19430891     0.08800
H209        H  0.71994156  0.70034190  0.23862508     0.06400
H210        H  0.70276701  0.76689414  0.19205039     0.06200
C211        C  0.69245406  0.42807792  0.69543985     0.03300
C212        C  0.69255856  0.45799311  0.70579223    -0.12900
C213        C  0.70270314  0.46378863  0.72262986     0.00800
C214        C  0.71311967  0.43961218  0.72909362    -0.11400
C215        C  0.71342269  0.40947673  0.71892338     0.03200
C216        C  0.70302756  0.40380208  0.70201935    -0.10800
H217        H  0.68495965  0.47735751  0.70039024     0.08800
H218        H  0.72067725  0.44404333  0.74248642     0.06400
H219        H  0.70312653  0.38061746  0.69410008     0.06200
C220        C  0.68831778  0.72775901  0.80272205     0.03300
C221        C  0.68856568  0.69658936  0.79414481    -0.12900
C222        C  0.69840246  0.68915536  0.77724554     0.00800
C223        C  0.70783895  0.71345980  0.76859952    -0.11400
C224        C  0.70780578  0.74474591  0.77709687     0.03200
C225        C  0.69815503  0.75176571  0.79439810    -0.10800
H226        H  0.68145340  0.67775263  0.80120344     0.08800
H227        H  0.71544087  0.70790487  0.75545277     0.06400
H228        H  0.69810833  0.77585527  0.80112136     0.06200
N229        N  0.60845398  0.45472154  0.54268362    -0.27200
N230        N  0.61979942  0.43970188  0.53240639    -0.35000
C231        C  0.63086269  0.42986623  0.54604130     0.01200
C232        C  0.62635930  0.43902431  0.56608190     0.07200
C233        C  0.61202297  0.45482585  0.56323423    -0.05900
H234        H  0.64145177  0.41717613  0.54145935     0.07900
H235        H  0.60467146  0.46572258  0.57511890     0.09100
Cu236      Cu  0.62000366  0.43349167  0.50024961     0.44200
Cu237      Cu  0.58865977  0.47384368  0.52789185     0.42000
Cu238      Cu  0.58629768  0.46223329  0.47115496     0.43900
N239        N  0.61847000  0.43153105  0.46792924    -0.34500
N240        N  0.60620366  0.44203495  0.45714755    -0.28800
C241        C  0.60932293  0.43889295  0.43658582    -0.04900
C242        C  0.62433887  0.42577173  0.43424012     0.07300
C243        C  0.62968916  0.42144264  0.45459861     0.01100
H244        H  0.60132915  0.44645427  0.42434220     0.08800
H245        H  0.64108231  0.41256188  0.45955400     0.07800
N246        N  0.56863824  0.48382153  0.48908243    -0.36000
N247        N  0.56962336  0.48831785  0.50954110    -0.28200
C248        C  0.55647046  0.50330455  0.51620532    -0.03400
C249        C  0.54660638  0.50860037  0.49917838     0.05200
C250        C  0.55480563  0.49585832  0.48223564     0.03300
H251        H  0.55441898  0.51017961  0.53230639     0.08400
H252        H  0.55107381  0.49533240  0.46604940     0.07200
N253        N  0.88596007  0.20004025  0.04360675    -0.27200
N254        N  0.87480041  0.21623577  0.03368318    -0.35000
C255        C  0.86384075  0.22569597  0.04758579     0.01200
C256        C  0.86825412  0.21493439  0.06733476     0.07200
C257        C  0.88240285  0.19876895  0.06408344    -0.05900
H258        H  0.85332208  0.23896983  0.04339234     0.07900
H259        H  0.88950738  0.18626444  0.07556985     0.09100
Cu260      Cu  0.87424515  0.22263256  0.00148556     0.44200
Cu261      Cu  0.90515211  0.17885870  0.02888319     0.42000
Cu262      Cu  0.90631136  0.18529737  0.97271526     0.43900
N263        N  0.87508467  0.21999565  0.96906893    -0.34500
N264        N  0.88678124  0.20635167  0.95866777    -0.28800
C265        C  0.88316642  0.20579259  0.93819188    -0.04900
C266        C  0.86838605  0.21962361  0.93540501     0.07300
C267        C  0.86369907  0.22847371  0.95545426     0.01100
H268        H  0.89055713  0.19470705  0.92643064     0.08800
H269        H  0.85259451  0.23912815  0.96007048     0.07800
N270        N  0.92341947  0.16145955  0.99007716    -0.36000
N271        N  0.92289751  0.15891281  0.01065988    -0.28200
C272        C  0.93540661  0.14171691  0.01722670    -0.03400
C273        C  0.94436364  0.13289058  0.99993141     0.05200
C274        C  0.93629224  0.14594043  0.98297280     0.03300
H275        H  0.93770928  0.13624267  0.03348177     0.08400
H276        H  0.93943536  0.14438006  0.96661314     0.07200
C277        C  0.80546703  0.22053782  0.19922240     0.03300
C278        C  0.79590788  0.24545195  0.20712218    -0.12900
C279        C  0.78588356  0.23969114  0.22422812     0.00800
C280        C  0.78529710  0.20868362  0.23313244    -0.11400
C281        C  0.79452137  0.18345046  0.22507183     0.03200
C282        C  0.80465088  0.18968228  0.20823874    -0.10800
H283        H  0.79639485  0.26930917  0.20013509     0.08800
H284        H  0.77747178  0.20410644  0.24619007     0.06400
H285        H  0.81151256  0.17010873  0.20155856     0.06200
C286        C  0.80036773  0.92141332  0.30911559     0.03300
C287        C  0.79011311  0.89765173  0.30128533    -0.12900
C288        C  0.77933345  0.90518102  0.28522855     0.00800
C289        C  0.77875912  0.93689292  0.27732987    -0.11400
C290        C  0.78899866  0.96069470  0.28499010     0.03200
C291        C  0.79965428  0.95283426  0.30095195    -0.10800
H292        H  0.79063658  0.87331807  0.30753840     0.08800
H293        H  0.77088175  0.94270035  0.26450260     0.06400
H294        H  0.80737561  0.97141984  0.30717123     0.06200
C295        C  0.80401995  0.21935548  0.80381750     0.03300
C296        C  0.80415203  0.19020256  0.79259786    -0.12900
C297        C  0.79420568  0.18552996  0.77531263     0.00800
C298        C  0.78411135  0.21055819  0.76911717    -0.11400
C299        C  0.78376161  0.24001196  0.78012576     0.03200
C300        C  0.79378547  0.24430023  0.79748938    -0.10800
H301        H  0.81154779  0.17048457  0.79795647     0.08800
H302        H  0.77665331  0.20722610  0.75549750     0.06400
H303        H  0.79350919  0.26682358  0.80617798     0.06200
C304        C  0.80340536  0.92278492  0.69363938     0.03300
C305        C  0.80354631  0.95315484  0.70330482    -0.12900
C306        C  0.79322650  0.96015591  0.71976357     0.00800
C307        C  0.78296241  0.93610204  0.72692552    -0.11400
C308        C  0.78291216  0.90528731  0.71760420     0.03200
C309        C  0.79295688  0.89889743  0.70064339    -0.10800
H310        H  0.81128485  0.97187703  0.69735194     0.08800
H311        H  0.77502669  0.94133478  0.73977729     0.06400
H312        H  0.79287883  0.87531681  0.69319816     0.06200
N313        N  0.88845391  0.93965307  0.45674665    -0.27200
N314        N  0.87697326  0.92614475  0.46758647    -0.35000
C315        C  0.86560857  0.91605583  0.45451856     0.01200
C316        C  0.87003030  0.92338398  0.43421586     0.07200
C317        C  0.88464482  0.93842186  0.43629877    -0.05900
H318        H  0.85478860  0.90485972  0.45970352     0.07900
H319        H  0.89192249  0.94831028  0.42399860     0.09100
Cu320      Cu  0.87630956  0.92360104  0.49963437     0.44200
Cu321      Cu  0.90833701  0.96028156  0.47069825     0.42000
Cu322      Cu  0.90780626  0.96035498  0.52794038     0.43900
N323        N  0.87619898  0.92869425  0.53156538    -0.34500
N324        N  0.88773059  0.94248054  0.54218889    -0.28800
C325        C  0.88365178  0.94394658  0.56248812    -0.04900
C326        C  0.86876092  0.93043057  0.56469172     0.07300
C327        C  0.86446625  0.92098449  0.54467501     0.01100
H328        H  0.89085315  0.95488722  0.57454950     0.08800
H329        H  0.85357639  0.90966833  0.53977991     0.07800
N330        N  0.92579364  0.97991208  0.51013034    -0.36000
N331        N  0.92606061  0.98018536  0.48944216    -0.28200
C332        C  0.93901770  0.99621559  0.48312044    -0.03400
C333        C  0.94731120  0.00668894  0.50067864     0.05200
C334        C  0.93850216  0.99568372  0.51748587     0.03300
H335        H  0.94189294  0.00055540  0.46688586     0.08400
H336        H  0.94093874  0.99913852  0.53395060     0.07200
C337        C  0.81783571  0.91013105  0.59970981    -0.17700
C338        C  0.80881440  0.90741125  0.61790383    -0.19900
C339        C  0.81578601  0.91199581  0.63759960     0.20800
C340        C  0.83204749  0.91905600  0.63902797    -0.02800
C341        C  0.84115279  0.92163707  0.62068300    -0.05900
C342        C  0.83398268  0.91730369  0.60095012     0.21100
C343        C  0.85736575  0.92898751  0.62208241     0.19200
C344        C  0.86435121  0.93349797  0.64179412    -0.17300
C345        C  0.85529188  0.93126772  0.65999178    -0.19600
C346        C  0.83913062  0.92430670  0.65874747     0.20700
C347        C  0.82980297  0.92360414  0.67679091    -0.32600
C348        C  0.81355427  0.91749272  0.67533150     0.01400
C349        C  0.80667492  0.91083944  0.65583538    -0.23900
C350        C  0.84305245  0.92036869  0.58277963    -0.28500
C351        C  0.85925123  0.92753902  0.58401073     0.07100
C352        C  0.86630067  0.93183088  0.60375726    -0.27200
H353        H  0.81216757  0.90675058  0.58465302     0.11800
H354        H  0.79634149  0.90212118  0.61655771     0.12900
H355        H  0.87679340  0.93908715  0.64312648     0.12000
H356        H  0.86088966  0.93531811  0.67502623     0.11300
H357        H  0.83502161  0.92888959  0.69192420     0.16600
H358        H  0.79407646  0.90663339  0.65478908     0.12500
H359        H  0.83738250  0.91740350  0.56771116     0.15400
H360        H  0.87876762  0.93714624  0.60496368     0.15200
C361        C  0.76465209  0.05915306  0.74092465    -0.17700
C362        C  0.76484154  0.09139544  0.74764780    -0.19900
C363        C  0.77919185  0.10696582  0.75198115     0.20800
C364        C  0.79349527  0.09001620  0.74929133    -0.02800
C365        C  0.79330158  0.05750704  0.74264232    -0.05900
C366        C  0.77880804  0.04196523  0.73847876     0.21100
C367        C  0.80762863  0.04055276  0.74022831     0.19200
C368        C  0.82197768  0.05614473  0.74434728    -0.17300
C369        C  0.82216885  0.08836479  0.75089895    -0.19600
C370        C  0.80800911  0.10538617  0.75353444     0.20700
C371        C  0.80812168  0.13722418  0.76091498    -0.32600
C372        C  0.79392787  0.15378505  0.76456856     0.01400
C373        C  0.77950001  0.13882725  0.75955841    -0.23900
C374        C  0.77877889  0.00967611  0.73168637    -0.28500
C375        C  0.79306599  0.99296700  0.72889704     0.07100
C376        C  0.80739675  0.00840112  0.73348982    -0.27200
H377        H  0.75343269  0.04762256  0.73771565     0.11800
H378        H  0.75375830  0.10407766  0.74961648     0.12900
H379        H  0.83305965  0.04340949  0.74250052     0.12000
H380        H  0.83339126  0.09987856  0.75411903     0.11300
H381        H  0.81927469  0.14889193  0.76438542     0.16600
H382        H  0.76850401  0.15142215  0.76246370     0.12500
H383        H  0.76771319  0.99786884  0.72794238     0.15400
H384        H  0.81840822  0.99539946  0.73154510     0.15200
C385        C  0.82133084  0.88580737  0.39877236    -0.17700
C386        C  0.81165328  0.88471930  0.38102845    -0.19900
C387        C  0.81687259  0.89768973  0.36197323     0.20800
C388        C  0.83221863  0.91078695  0.36060003    -0.02800
C389        C  0.84197022  0.91185897  0.37849229    -0.05900
C390        C  0.83638668  0.89984893  0.39773863     0.21100
C391        C  0.85709171  0.92594867  0.37726092     0.19200
C392        C  0.86254829  0.93781969  0.35802866    -0.17300
C393        C  0.85287105  0.93687863  0.34031919    -0.19600
C394        C  0.83760071  0.92400933  0.34156528     0.20700
C395        C  0.82737825  0.92547474  0.32438337    -0.32600
C396        C  0.81178949  0.91420291  0.32600345     0.01400
C397        C  0.80678232  0.89921622  0.34456641    -0.23900
C398        C  0.84576712  0.90289265  0.41572579    -0.28500
C399        C  0.86066371  0.91800579  0.41482309     0.07100
C400        C  0.86633349  0.92880757  0.39536738    -0.27200
H401        H  0.81690472  0.87627567  0.41342124     0.11800
H402        H  0.79994375  0.87444951  0.38234010     0.12900
H403        H  0.87417189  0.94851405  0.35678964     0.12000
H404        H  0.85719242  0.94694317  0.32576423     0.11300
H405        H  0.83132817  0.93658048  0.30994129     0.16600
H406        H  0.79475636  0.89056666  0.34585494     0.12500
H407        H  0.84122160  0.89399384  0.43043877     0.15400
H408        H  0.87778720  0.94018458  0.39425755     0.15200
C409        C  0.76310091  0.09161389  0.25212739    -0.17700
C410        C  0.76227695  0.06025400  0.26031501    -0.19900
C411        C  0.77607282  0.04213167  0.26350861     0.20800
C412        C  0.79082706  0.05565647  0.25822007    -0.02800
C413        C  0.79165198  0.08719546  0.24993662    -0.05900
C414        C  0.77773240  0.10534133  0.24699428     0.21100
C415        C  0.80643304  0.10061232  0.24472862     0.19200
C416        C  0.82020853  0.08239804  0.24762591    -0.17300
C417        C  0.81939757  0.05119974  0.25587736    -0.19600
C418        C  0.80479958  0.03776145  0.26133074     0.20700
C419        C  0.80397646  0.00678930  0.26996413    -0.32600
C420        C  0.78939159  0.99327413  0.27551571     0.01400
C421        C  0.77543716  0.01086747  0.27204698    -0.23900
C422        C  0.77871947  0.13686065  0.23898202    -0.28500
C423        C  0.79344775  0.15039916  0.23388025     0.07100
C424        C  0.80722386  0.13207367  0.23680262    -0.27200
H425        H  0.75229770  0.10518569  0.24989269     0.11800
H426        H  0.75085735  0.05023837  0.26425171     0.12900
H427        H  0.83162624  0.09235717  0.24361404     0.12000
H428        H  0.83020542  0.03763847  0.25810983     0.11300
H429        H  0.81472165  0.99301196  0.27228675     0.16600
H430        H  0.76417278  0.00045081  0.27636135     0.12500
H431        H  0.76802569  0.15068712  0.23644101     0.15400
H432        H  0.81861749  0.14248527  0.23312029     0.15200
C433        C  0.81196458  0.25057414  0.12508974    -0.17700
C434        C  0.82055544  0.24866705  0.10645410    -0.19900
C435        C  0.83575744  0.23521663  0.10629324     0.20800
C436        C  0.84247308  0.22403941  0.12514937    -0.02800
C437        C  0.83379161  0.22584323  0.14394377    -0.05900
C438        C  0.81840720  0.23893317  0.14386516     0.21100
C439        C  0.84034658  0.21376244  0.16268179     0.19200
C440        C  0.85565403  0.20088813  0.16261228    -0.17300
C441        C  0.86429267  0.19931831  0.14401451    -0.19600
C442        C  0.85773967  0.21049549  0.12517324     0.20700
C443        C  0.86612618  0.20798085  0.10634051    -0.32600
C444        C  0.85945862  0.21861510  0.08734420     0.01400
C445        C  0.84426206  0.23240697  0.08756146    -0.23900
C446        C  0.80952867  0.23902980  0.16237835    -0.28500
C447        C  0.81573470  0.22559170  0.18081914     0.07100
C448        C  0.83127920  0.21374994  0.18098755    -0.27200
H449        H  0.80017794  0.26068389  0.12475129     0.11800
H450        H  0.81524068  0.25744423  0.09211065     0.12900
H451        H  0.86086285  0.19160111  0.17689070     0.12000
H452        H  0.87602590  0.18894796  0.14431699     0.11300
H453        H  0.87782359  0.19754309  0.10659897     0.16600
H454        H  0.83888121  0.24069958  0.07317213     0.12500
H455        H  0.79749919  0.24791477  0.16218011     0.15400
H456        H  0.83611570  0.20361089  0.19527049     0.15200
C457        C  0.85456504  0.20118972  0.84061371    -0.17700
C458        C  0.86350463  0.20107242  0.85902983    -0.19900
C459        C  0.85690983  0.21175746  0.87796087     0.20800
C460        C  0.84118310  0.22280659  0.87832857    -0.02800
C461        C  0.83217586  0.22307997  0.85972174    -0.05900
C462        C  0.83889584  0.21210224  0.84080615     0.21100
C463        C  0.81641556  0.23406347  0.86009993     0.19200
C464        C  0.80980870  0.24457666  0.87904699    -0.17300
C465        C  0.81872943  0.24423663  0.89748385    -0.19600
C466        C  0.83441806  0.23339836  0.89729480     0.20700
C467        C  0.84339481  0.23273621  0.91577099    -0.32600
C468        C  0.85909277  0.22153993  0.91563239     0.01400
C469        C  0.86574802  0.21133106  0.89652899    -0.23900
C470        C  0.82976876  0.21186857  0.82248624    -0.28500
C471        C  0.81400174  0.22251241  0.82278728     0.07100
C472        C  0.80746523  0.23388226  0.84161176    -0.27200
H473        H  0.85989502  0.19264729  0.82622560     0.11800
H474        H  0.87556593  0.19246513  0.85848259     0.12900
H475        H  0.79771184  0.25296404  0.87962642     0.12000
H476        H  0.81333548  0.25239331  0.91192144     0.11300
H477        H  0.83801268  0.24067543  0.93023675     0.16600
H478        H  0.87779918  0.20281281  0.89596865     0.12500
H479        H  0.83487680  0.20317059  0.80798015     0.15400
H480        H  0.79524941  0.24158923  0.84199815     0.15200
C481        C  0.76096230  0.84669530  0.77773118    -0.17700
C482        C  0.75008692  0.82499972  0.78617397    -0.19900
C483        C  0.73962211  0.80823749  0.77306865     0.20800
C484        C  0.74023653  0.81300057  0.75119328    -0.02800
C485        C  0.75122131  0.83485231  0.74267193    -0.05900
C486        C  0.76152485  0.85193201  0.75606276     0.21100
C487        C  0.75179755  0.83983003  0.72081289     0.19200
C488        C  0.74146579  0.82269904  0.70768451    -0.17300
C489        C  0.73057925  0.80093948  0.71614188    -0.19600
C490        C  0.72986034  0.79600394  0.73785412     0.20700
C491        C  0.71902623  0.77424030  0.74648305    -0.32600
C492        C  0.71841211  0.76940816  0.76824819     0.01400
C493        C  0.72864059  0.78660749  0.78145319    -0.23900
C494        C  0.77205967  0.87433144  0.74759871    -0.28500
C495        C  0.77245805  0.87992978  0.72594258     0.07100
C496        C  0.76251567  0.86224716  0.71255403    -0.27200
H497        H  0.76885810  0.85957357  0.78816802     0.11800
H498        H  0.74981326  0.82143306  0.80297051     0.12900
H499        H  0.74175349  0.82624778  0.69088720     0.12000
H500        H  0.72269963  0.78801639  0.70570735     0.11300
H501        H  0.71108808  0.76093501  0.73630949     0.16600
H502        H  0.72831216  0.78246400  0.79820639     0.12500
H503        H  0.77990721  0.88769012  0.75787077     0.15400
H504        H  0.76281032  0.86668473  0.69583422     0.15200
C505        C  0.68260716  0.39601947  0.62189674    -0.17700
C506        C  0.67341001  0.39810511  0.60374963    -0.19900
C507        C  0.65870886  0.41372939  0.60414010     0.20800
C508        C  0.65301969  0.42662585  0.62310765    -0.02800
C509        C  0.66224454  0.42428923  0.64147055    -0.05900
C510        C  0.67721999  0.40933768  0.64078840     0.21100
C511        C  0.65665920  0.43766839  0.66035835     0.19200
C512        C  0.64182063  0.45270478  0.66086226    -0.17300
C513        C  0.63272668  0.45515854  0.64264521    -0.19600
C514        C  0.63828615  0.44249130  0.62363899     0.20700
C515        C  0.62951343  0.44596763  0.60510759    -0.32600
C516        C  0.63525130  0.43382403  0.58595242     0.01400
C517        C  0.64978153  0.41723412  0.58578694    -0.23900
C518        C  0.68676506  0.40900142  0.65878674    -0.28500
C519        C  0.68152375  0.42348672  0.67744929     0.07100
C520        C  0.66621979  0.43675416  0.67824241    -0.27200
H521        H  0.69403953  0.38438289  0.62108043     0.11800
H522        H  0.67792651  0.38796375  0.58930349     0.12900
H523        H  0.63736792  0.46309364  0.67527204     0.12000
H524        H  0.62142330  0.46732882  0.64337108     0.11300
H525        H  0.61834561  0.45860135  0.60566436     0.16600
H526        H  0.65439654  0.40739801  0.57134846     0.12500
H527        H  0.69854805  0.39892422  0.65796622     0.15400
H528        H  0.66193670  0.44738069  0.69268200     0.15200
C529        C  0.67197604  0.58730824  0.75806855    -0.17700
C530        C  0.67263549  0.55528336  0.75116658    -0.19900
C531        C  0.68717936  0.54097246  0.74636641     0.20800
C532        C  0.70124383  0.55880527  0.74885555    -0.02800
C533        C  0.70057300  0.59111896  0.75576060    -0.05900
C534        C  0.68585227  0.60542700  0.76027309     0.21100
C535        C  0.71459748  0.60917545  0.75795149     0.19200
C536        C  0.72916397  0.59467477  0.75343769    -0.17300
C537        C  0.72983066  0.56258093  0.74655853    -0.19600
C538        C  0.71594131  0.54454298  0.74409340     0.20700
C539        C  0.71642634  0.51281736  0.73639588    -0.32600
C540        C  0.70239173  0.49550568  0.73315319     0.01400
C541        C  0.68786413  0.50941166  0.73859540    -0.23900
C542        C  0.68524780  0.63762541  0.76689263    -0.28500
C543        C  0.69915751  0.65569213  0.76922771     0.07100
C544        C  0.71379578  0.64137271  0.76468001    -0.27200
H545        H  0.66060489  0.59797473  0.76155615     0.11800
H546        H  0.66175720  0.54181624  0.74935889     0.12900
H547        H  0.74003163  0.60821732  0.75510850     0.12000
H548        H  0.74119422  0.55196770  0.74296702     0.11300
H549        H  0.72762778  0.50207530  0.73208258     0.16600
H550        H  0.67706037  0.49580921  0.73632432     0.12500
H551        H  0.67392813  0.64871949  0.77016459     0.15400
H552        H  0.72457546  0.65509439  0.76678307     0.15200
C553        C  0.73234050  0.27370115  0.75135718    -0.17700
C554        C  0.72276485  0.29695284  0.74182079    -0.19900
C555        C  0.72829498  0.32860070  0.73887796     0.20800
C556        C  0.74358066  0.33700017  0.74579861    -0.02800
C557        C  0.75322549  0.31355899  0.75549291    -0.05900
C558        C  0.74759631  0.28172085  0.75811331     0.21100
C559        C  0.76854848  0.32187202  0.76231754     0.19200
C560        C  0.77400202  0.35364585  0.75961024    -0.17300
C561        C  0.76443275  0.37689363  0.75000693    -0.19600
C562        C  0.74924462  0.36876734  0.74299030     0.20700
C563        C  0.73955896  0.39191935  0.73341513    -0.32600
C564        C  0.72417881  0.38391393  0.72683733     0.01400
C565        C  0.71871841  0.35207367  0.72940757    -0.23900
C566        C  0.75743742  0.25826020  0.76701040    -0.28500
C567        C  0.77291991  0.26601606  0.77314880     0.07100
C568        C  0.77827536  0.29806891  0.77121611    -0.27200
H569        H  0.72785412  0.24934546  0.75329941     0.11800
H570        H  0.71104323  0.29014799  0.73668450     0.12900
H571        H  0.78571889  0.36045274  0.76476463     0.12000
H572        H  0.76892446  0.40123957  0.74803580     0.11300
H573        H  0.74392841  0.41634031  0.73127499     0.16600
H574        H  0.70682043  0.34583136  0.72468427     0.12500
H575        H  0.75315132  0.23370768  0.76881834     0.15400
H576        H  0.79022028  0.30415212  0.77582041     0.15200
C577        C  0.76349318  0.77204539  0.24583609    -0.17700
C578        C  0.77275045  0.79537642  0.25587425    -0.19900
C579        C  0.76638646  0.82572495  0.26094821     0.20800
C580        C  0.75056603  0.83273005  0.25576619    -0.02800
C581        C  0.74125633  0.80926105  0.24552346    -0.05900
C582        C  0.74774902  0.77873627  0.24063183     0.21100
C583        C  0.72545096  0.81630321  0.24025724     0.19200
C584        C  0.71909357  0.84666246  0.24533716    -0.17300
C585        C  0.72831592  0.86990083  0.25553566    -0.19600
C586        C  0.74405028  0.86318331  0.26077973     0.20700
C587        C  0.75340864  0.88644457  0.27082414    -0.32600
C588        C  0.76923166  0.87976250  0.27583829     0.01400
C589        C  0.77560636  0.84927116  0.27094432    -0.23900
C590        C  0.73834904  0.75535732  0.23077486    -0.28500
C591        C  0.72256217  0.76210552  0.22563515     0.07100
C592        C  0.71623704  0.79273895  0.23022554    -0.27200
H593        H  0.76864723  0.74873097  0.24216004     0.11800
H594        H  0.78488381  0.78965721  0.25970857     0.12900
H595        H  0.70697345  0.85241604  0.24145433     0.12000
H596        H  0.72314658  0.89317433  0.25928373     0.11300
H597        H  0.74839396  0.90981819  0.27472522     0.16600
H598        H  0.78786245  0.84414579  0.27446276     0.12500
H599        H  0.74329153  0.73182827  0.22710296     0.15400
H600        H  0.70401451  0.79787628  0.22650270     0.15200
C601        C  0.67303892  0.39189053  0.39723645    -0.17700
C602        C  0.68217426  0.39051424  0.37902372    -0.19900
C603        C  0.67599145  0.40119318  0.35985015     0.20800
C604        C  0.66028091  0.41247217  0.35893087    -0.02800
C605        C  0.65106910  0.41383966  0.37731481    -0.05900
C606        C  0.65756080  0.40394929  0.39659757     0.21100
C607        C  0.63553092  0.42598081  0.37648199     0.19200
C608        C  0.62918127  0.43577619  0.35720117    -0.17300
C609        C  0.63831316  0.43453016  0.33901025    -0.19600
C610        C  0.65393808  0.42344051  0.33978788     0.20700
C611        C  0.66351207  0.42434410  0.32194815    -0.32600
C612        C  0.67938622  0.41463230  0.32296894     0.01400
C613        C  0.68541689  0.40206530  0.34178842    -0.23900
C614        C  0.64862402  0.40703429  0.41497768    -0.28500
C615        C  0.63326861  0.42014965  0.41446060     0.07100
C616        C  0.62674007  0.42893193  0.39498629    -0.27200
H617        H  0.67818773  0.38405134  0.41191043     0.11800
H618        H  0.69418608  0.38170790  0.38001977     0.12900
H619        H  0.61724240  0.44500312  0.35625596     0.12000
H620        H  0.63325359  0.44288532  0.32440008     0.11300
H621        H  0.65878495  0.43365891  0.30736950     0.16600
H622        H  0.69766830  0.39468061  0.34264530     0.12500
H623        H  0.65384165  0.39971790  0.42968892     0.15400
H624        H  0.61494511  0.43882119  0.39414375     0.15200
C625        C  0.70294322  0.57726937  0.28761632    -0.17700
C626        C  0.70344809  0.60839801  0.27906033    -0.19900
C627        C  0.70290080  0.61279852  0.25728719     0.20800
C628        C  0.70193490  0.58554606  0.24400131    -0.02800
C629        C  0.70144324  0.55415356  0.25262372    -0.05900
C630        C  0.70188328  0.55003595  0.27454036     0.21100
C631        C  0.70048124  0.52692191  0.23930820     0.19200
C632        C  0.70000828  0.53129630  0.21754660    -0.17300
C633        C  0.70047094  0.56240273  0.20900889    -0.19600
C634        C  0.70140498  0.58963105  0.22209426     0.20700
C635        C  0.70176063  0.62085422  0.21362678    -0.32600
C636        C  0.70251866  0.64820935  0.22672126     0.01400
C637        C  0.70317750  0.64394504  0.24856856    -0.23900
C638        C  0.70127608  0.51876819  0.28297792    -0.28500
C639        C  0.70035256  0.49155329  0.26979159     0.07100
C640        C  0.69999813  0.49580737  0.24797954    -0.27200
H641        H  0.70334161  0.57449843  0.30447315     0.11800
H642        H  0.70421613  0.62904762  0.28948126     0.12900
H643        H  0.69926423  0.51064704  0.20712167     0.12000
H644        H  0.70005804  0.56517018  0.19215242     0.11300
H645        H  0.70155269  0.62386031  0.19677464     0.16600
H646        H  0.70360003  0.66487184  0.25879968     0.12500
H647        H  0.70175159  0.51552767  0.29980724     0.15400
H648        H  0.69917798  0.47486729  0.23778982     0.15200
C649        C  0.73442695  0.34570857  0.22077155    -0.17700
C650        C  0.74528920  0.32337115  0.21287475    -0.19900
C651        C  0.75515077  0.30604349  0.22648721     0.20800
C652        C  0.75404315  0.31119557  0.24829349     0.00400
C653        C  0.74305267  0.33366501  0.25626562    -0.05900
C654        C  0.73323175  0.35102699  0.24241367     0.21100
C655        C  0.74188045  0.33870491  0.27807639     0.19200
C656        C  0.75176899  0.32140929  0.29168263    -0.17300
C657        C  0.76265571  0.29910632  0.28378339    -0.19600
C658        C  0.76383259  0.29374676  0.26214461     0.20700
C659        C  0.77448368  0.27097380  0.25412290    -0.32600
C660        C  0.77550547  0.26548555  0.23243972     0.01400
C661        C  0.76594328  0.28334848  0.21870103    -0.23900
C662        C  0.72242153  0.37346858  0.25043940    -0.28500
C663        C  0.72121548  0.37868707  0.27214173     0.07100
C664        C  0.73090840  0.36106938  0.28587595    -0.27200
H665        H  0.72694845  0.35882580  0.20994460     0.11800
H666        H  0.74596169  0.31961470  0.19610966     0.12900
H667        H  0.75105595  0.32507496  0.30845218     0.12000
H668        H  0.77010902  0.28593100  0.29461170     0.11300
H669        H  0.78192922  0.25731647  0.26472822     0.16600
H670        H  0.76659073  0.27885744  0.20199661     0.12500
H671        H  0.71488041  0.38686363  0.23981317     0.15400
H672        H  0.73013749  0.36532454  0.30259424     0.15200
C673        C  0.68507814  0.74699800  0.11656008    -0.17700
C674        C  0.67559415  0.74681814  0.09859706    -0.19900
C675        C  0.65969951  0.73746443  0.09975095     0.20800
C676        C  0.65319730  0.72896507  0.11928298    -0.02800
C677        C  0.66275466  0.72914286  0.13741087    -0.05900
C678        C  0.67882726  0.73783802  0.13600366     0.21100
C679        C  0.65632792  0.71968157  0.15681809     0.19200
C680        C  0.64034791  0.71119071  0.15809203    -0.17300
C681        C  0.63088332  0.71109965  0.14015621    -0.19600
C682        C  0.63725183  0.71945123  0.12063601     0.20700
C683        C  0.62803732  0.71769680  0.10240929    -0.32600
C684        C  0.63452488  0.72516165  0.08273308     0.01400
C685        C  0.65032108  0.73565229  0.08165114    -0.23900
C686        C  0.68844533  0.73616879  0.15391624    -0.28500
C687        C  0.68220816  0.72537519  0.17305171     0.07100
C688        C  0.66609579  0.71785044  0.17447277    -0.27200
H689        H  0.69737008  0.75379063  0.11517933     0.11800
H690        H  0.68076713  0.75351467  0.08372367     0.12900
H691        H  0.63522987  0.70404233  0.17291162     0.12000
H692        H  0.61864123  0.70391841  0.14149320     0.11300
H693        H  0.61585548  0.71010457  0.10359774     0.16600
H694        H  0.65554832  0.74147901  0.06668063     0.12500
H695        H  0.70090062  0.74179404  0.15279104     0.15400
H696        H  0.66127615  0.70974775  0.18928066     0.15200
C697        C  0.68185011  0.75388763  0.87744921    -0.17700
C698        C  0.67278152  0.75245514  0.89569823    -0.19900
C699        C  0.65700176  0.74225696  0.89488364     0.20800
C700        C  0.65020863  0.73389485  0.87546131    -0.02800
C701        C  0.65935008  0.73527008  0.85706315    -0.05900
C702        C  0.67529043  0.74508748  0.85808991     0.21100
C703        C  0.65266180  0.72591313  0.83774916     0.19200
C704        C  0.63684518  0.71611595  0.83687183    -0.17300
C705        C  0.62776467  0.71495451  0.85508491    -0.19600
C706        C  0.63438751  0.72343941  0.87446854     0.20700
C707        C  0.62554196  0.72100424  0.89290536    -0.32600
C708        C  0.63230909  0.72854589  0.91243254     0.01400
C709        C  0.64801219  0.73961077  0.91320388    -0.23900
C710        C  0.68452054  0.74474342  0.83987937    -0.28500
C711        C  0.67804694  0.73407034  0.82085436     0.07100
C712        C  0.66205961  0.72540258  0.81978568    -0.27200
H713        H  0.69406266  0.76140569  0.87852606     0.11800
H714        H  0.67817184  0.75896818  0.91050241     0.12900
H715        H  0.63155886  0.70889861  0.82213638     0.12000
H716        H  0.61562631  0.70693157  0.85405711     0.11300
H717        H  0.61342940  0.71287278  0.89197596     0.16600
H718        H  0.65345906  0.74540797  0.92806986     0.12500
H719        H  0.69691730  0.75103990  0.84069489     0.15400
H720        H  0.65711715  0.71716795  0.80504230     0.15200
C721        C  0.48919375  0.58164768  0.46126956    -0.17700
C722        C  0.50310293  0.56341574  0.46119191    -0.19900
C723        C  0.50981826  0.55272096  0.48005183     0.20800
C724        C  0.50228522  0.56004137  0.49915525    -0.02800
C725        C  0.48821405  0.57841764  0.49923001    -0.05900
C726        C  0.48171544  0.58946558  0.48020598     0.21100
C727        C  0.48075853  0.58600204  0.51833709     0.19200
C728        C  0.48731197  0.57477248  0.53717731    -0.17300
C729        C  0.50125595  0.55663175  0.53710836    -0.19600
C730        C  0.50890838  0.54938075  0.51819874     0.20700
C731        C  0.52317400  0.53209602  0.51804623    -0.32600
C732        C  0.53101910  0.52532276  0.49909730     0.01400
C733        C  0.52406529  0.53535834  0.48013781    -0.23900
C734        C  0.46791172  0.60826001  0.48041134    -0.28500
C735        C  0.46037490  0.61619835  0.49939372     0.07100
C736        C  0.46693616  0.60477880  0.51830167    -0.27200
H737        H  0.48433460  0.58981662  0.44649733     0.11800
H738        H  0.50869626  0.55794488  0.44636565     0.12900
H739        H  0.48171416  0.58023374  0.55200230     0.12000
H740        H  0.50613743  0.54852581  0.55188269     0.11300
H741        H  0.52816864  0.52415917  0.53277141     0.16600
H742        H  0.52988358  0.53043090  0.46540577     0.12500
H743        H  0.46314208  0.61673799  0.46569184     0.15400
H744        H  0.46134632  0.61036411  0.53308232     0.15200
C745        C  0.31214271  0.76264066  0.62023690    -0.17700
C746        C  0.32158953  0.76125904  0.60230120    -0.19900
C747        C  0.33650669  0.74652029  0.60297918     0.20800
C748        C  0.34218719  0.73403140  0.62206564    -0.02800
C749        C  0.33270589  0.73560775  0.64019692    -0.05900
C750        C  0.31748503  0.74945312  0.63920067     0.21100
C751        C  0.33826572  0.72235922  0.65913797     0.19200
C752        C  0.35335903  0.70851165  0.65999188    -0.17300
C753        C  0.36271648  0.70685528  0.64202669    -0.19600
C754        C  0.35714883  0.71911839  0.62292167     0.20700
C755        C  0.36611384  0.71592856  0.60458295    -0.32600
C756        C  0.36033554  0.72732290  0.58526869     0.01400
C757        C  0.34563343  0.74328321  0.58478894    -0.23900
C758        C  0.30767245  0.74866100  0.65693150    -0.28500
C759        C  0.31290329  0.73399621  0.67554980     0.07100
C760        C  0.32842124  0.72201809  0.67669260    -0.27200
H761        H  0.30053745  0.77348646  0.61917448     0.11800
H762        H  0.31708031  0.77113113  0.58777312     0.12900
H763        H  0.35779656  0.69830764  0.67446405     0.12000
H764        H  0.37420231  0.69546395  0.64299700     0.11300
H765        H  0.37742144  0.70386454  0.60539532     0.16600
H766        H  0.34102057  0.75266373  0.57021856     0.12500
H767        H  0.29572496  0.75785705  0.65591458     0.15400
H768        H  0.33263549  0.71125375  0.69112693     0.15200
C769        C  0.26373674  0.56361867  0.75551535    -0.17700
C770        C  0.26364234  0.59485085  0.74718568    -0.19900
C771        C  0.27785127  0.61050285  0.74238751     0.20800
C772        C  0.29232611  0.59468511  0.74616428    -0.02800
C773        C  0.29242447  0.56319677  0.75462603    -0.05900
C774        C  0.27804087  0.54756562  0.75918837     0.21100
C775        C  0.30688587  0.54732747  0.75842634     0.19200
C776        C  0.32110520  0.56308900  0.75375037    -0.17300
C777        C  0.32100344  0.59428255  0.74526460    -0.19600
C778        C  0.30668196  0.61022802  0.74136942     0.20700
C779        C  0.30644398  0.64136671  0.73268986    -0.32600
C780        C  0.29203887  0.65715990  0.72872530     0.01400
C781        C  0.27780939  0.64158447  0.73371183    -0.23900
C782        C  0.27819515  0.51614144  0.76731932    -0.28500
C783        C  0.29252697  0.50019361  0.77112000     0.07100
C784        C  0.30684258  0.51595553  0.76675649    -0.27200
H785        H  0.25260893  0.55196091  0.75901409     0.11800
H786        H  0.25244171  0.60671933  0.74440391     0.12900
H787        H  0.33230402  0.55124107  0.75658242     0.12000
H788        H  0.33212690  0.60590592  0.74169424     0.11300
H789        H  0.31746793  0.65342413  0.72913434     0.16600
H790        H  0.26666869  0.65342175  0.73044360     0.12500
H791        H  0.26716085  0.50418777  0.77097794     0.15400
H792        H  0.31791658  0.50360113  0.76962166     0.15200
C793        C  0.49260782  0.55726707  0.03639018    -0.17700
C794        C  0.50689106  0.57417302  0.03616840    -0.19900
C795        C  0.51218866  0.58908447  0.01774717     0.20800
C796        C  0.50291275  0.58727988  0.99944061    -0.02800
C797        C  0.48847854  0.57023285  0.99967486    -0.05900
C798        C  0.48336450  0.55499908  0.01820477     0.21100
C799        C  0.47926384  0.56816578  0.98132316     0.19200
C800        C  0.48444119  0.58352805  0.96299480    -0.17300
C801        C  0.49874831  0.60038221  0.96275870    -0.19600
C802        C  0.50812787  0.60219793  0.98084801     0.20700
C803        C  0.52267385  0.61842853  0.98061621    -0.32600
C804        C  0.53212724  0.62002033  0.99874557     0.01400
C805        C  0.52667711  0.60543769  0.01728929    -0.23900
C806        C  0.46918927  0.53750189  0.01819457    -0.28500
C807        C  0.45998477  0.53492365  0.99989151     0.07100
C808        C  0.46510513  0.55058942  0.98155282    -0.27200
H809        H  0.48883639  0.54578144  0.05077286     0.11800
H810        H  0.51385361  0.57538978  0.05038292     0.12900
H811        H  0.47748054  0.58229681  0.94877955     0.12000
H812        H  0.50253546  0.61180829  0.94836421     0.11300
H813        H  0.52656685  0.62983715  0.96628241     0.16600
H814        H  0.53379653  0.60622723  0.03135646     0.12500
H815        H  0.46551117  0.52551717  0.03242658     0.15400
H816        H  0.45810374  0.54924008  0.96739818     0.15200
C817        C  0.30985658  0.39598972  0.88024647    -0.17700
C818        C  0.31925107  0.39610083  0.89831680    -0.19900
C819        C  0.33476847  0.40797417  0.89768217     0.20800
C820        C  0.34100192  0.41900385  0.87853477    -0.02800
C821        C  0.33155022  0.41890302  0.86033161    -0.05900
C822        C  0.31582635  0.40771729  0.86121838     0.21100
C823        C  0.33772099  0.43090951  0.84138176     0.19200
C824        C  0.35331677  0.44203509  0.84058721    -0.17300
C825        C  0.36267043  0.44203852  0.85857637    -0.19600
C826        C  0.35655817  0.43099163  0.87765532     0.20700
C827        C  0.36562464  0.43268992  0.89594491    -0.32600
C828        C  0.35935562  0.42307740  0.91533215     0.01400
C829        C  0.34399831  0.40993604  0.91593473    -0.23900
C830        C  0.30625891  0.40951076  0.84323819    -0.28500
C831        C  0.31224311  0.42275834  0.82458621     0.07100
C832        C  0.32806762  0.43258763  0.82368247    -0.27200
H833        H  0.29783948  0.38724378  0.88123767     0.11800
H834        H  0.31428139  0.38742255  0.91287936     0.12900
H835        H  0.35820387  0.45125952  0.82611415     0.12000
H836        H  0.37460759  0.45125338  0.85764632     0.11300
H837        H  0.37744545  0.44238419  0.89500912     0.16600
H838        H  0.33897715  0.40204109  0.93062160     0.12500
H839        H  0.29401989  0.40204768  0.84398965     0.15400
H840        H  0.33274016  0.44243277  0.80923613     0.15200
C841        C  0.31055503  0.75479881  0.37697847    -0.17700
C842        C  0.31981696  0.75437796  0.39520355    -0.19900
C843        C  0.33455753  0.73880172  0.39540060     0.20800
C844        C  0.34008504  0.72396258  0.37693024    -0.02800
C845        C  0.33077574  0.72446016  0.35853840    -0.05900
C846        C  0.31586903  0.73971557  0.35856273     0.21100
C847        C  0.33631784  0.70921755  0.34021566     0.19200
C848        C  0.35108490  0.69394846  0.34029059    -0.17300
C849        C  0.36025595  0.69339979  0.35845961    -0.19600
C850        C  0.35483861  0.70818593  0.37686894     0.20700
C851        C  0.36387533  0.70697984  0.39524140    -0.32600
C852        C  0.35843783  0.72115131  0.41393340     0.01400
C853        C  0.34376858  0.73738759  0.41375733    -0.23900
C854        C  0.30644596  0.73889224  0.34034190    -0.28500
C855        C  0.31177215  0.72283696  0.32217854     0.07100
C856        C  0.32690111  0.70883808  0.32221389    -0.27200
H857        H  0.29916763  0.76667211  0.37734888     0.11800
H858        H  0.31536940  0.76597797  0.40922173     0.12900
H859        H  0.35548169  0.68209793  0.32632876     0.12000
H860        H  0.37155745  0.68117578  0.35814870     0.11300
H861        H  0.37505671  0.69440190  0.39491206     0.16600
H862        H  0.33938204  0.74869689  0.42788377     0.12500
H863        H  0.29479167  0.74965181  0.34053521     0.15400
H864        H  0.33128118  0.69705383  0.30820761     0.15200
C865        C  0.36547474  0.43234037  0.14355024    -0.17700
C866        C  0.35602837  0.43059017  0.16144442    -0.19900
C867        C  0.34058425  0.41855469  0.16015067     0.20800
C868        C  0.33480791  0.40689218  0.14085809    -0.02800
C869        C  0.34433728  0.40870417  0.12281078    -0.05900
C870        C  0.35962261  0.42208168  0.12407993     0.21100
C871        C  0.33832550  0.39830863  0.10336779     0.19200
C872        C  0.32308344  0.38519740  0.10221007    -0.17300
C873        C  0.31361351  0.38350850  0.12006586    -0.19600
C874        C  0.31925333  0.39482644  0.13938203     0.20700
C875        C  0.30934773  0.39595115  0.15695068    -0.32600
C876        C  0.31473857  0.40956458  0.17579314     0.01400
C877        C  0.33053811  0.41960100  0.17751784    -0.23900
C878        C  0.36855007  0.42605690  0.10576911    -0.28500
C879        C  0.36235663  0.41703726  0.08614190     0.07100
C880        C  0.34739969  0.40225490  0.08526952    -0.27200
H881        H  0.37721546  0.44248104  0.14484719     0.11800
H882        H  0.36065103  0.43949238  0.17618705     0.12900
H883        H  0.31832917  0.37698865  0.08737314     0.12000
H884        H  0.30173390  0.37411087  0.11865583     0.11300
H885        H  0.29715118  0.38837913  0.15556796     0.16600
H886        H  0.33473129  0.42985308  0.19213755     0.12500
H887        H  0.38009317  0.43709074  0.10683933     0.15400
H888        H  0.34247038  0.39458765  0.07045804     0.15200
C889        C  0.32060738  0.59024806  0.24513372    -0.17700
C890        C  0.32067910  0.55898453  0.23671036    -0.19900
C891        C  0.30648501  0.54215245  0.23368207     0.20800
C892        C  0.29205572  0.55717759  0.23879623    -0.02800
C893        C  0.29197606  0.58874437  0.24723750    -0.05900
C894        C  0.30633851  0.60519409  0.25063845     0.21100
C895        C  0.27753905  0.60363151  0.25255588     0.19200
C896        C  0.26334312  0.58697687  0.24923092    -0.17300
C897        C  0.26342849  0.55567841  0.24089902    -0.19600
C898        C  0.27771231  0.54051532  0.23576397     0.20700
C899        C  0.27789504  0.50887136  0.22786267    -0.32600
C900        C  0.29223870  0.49342494  0.22313126     0.01400
C901        C  0.30648582  0.51039630  0.22594653    -0.23900
C902        C  0.30617149  0.63609911  0.25973801    -0.28500
C903        C  0.29182971  0.65088069  0.26526445     0.07100
C904        C  0.27756123  0.63470739  0.26138484    -0.27200
H905        H  0.33172639  0.60262085  0.24753470     0.11800
H906        H  0.33185385  0.54783721  0.23276593     0.12900
H907        H  0.25216843  0.59807112  0.25323137     0.12000
H908        H  0.25231652  0.54321901  0.23863161     0.11300
H909        H  0.26684302  0.49627825  0.22535329     0.16600
H910        H  0.31762548  0.49863799  0.22259645     0.12500
H911        H  0.31718030  0.64871384  0.26257230     0.15400
H912        H  0.26651068  0.64602587  0.26576515     0.15200
C913        C  0.00076918  0.08995393  0.54038033    -0.17700
C914        C  0.98678995  0.07190001  0.53987621    -0.19900
C915        C  0.98133438  0.05841584  0.52100637     0.20800
C916        C  0.98997221  0.06346948  0.50246128    -0.02800
C917        C  0.00406271  0.08167725  0.50297433    -0.05900
C918        C  0.00954733  0.09485307  0.52202743     0.21100
C919        C  0.01270994  0.08645668  0.48441437     0.19200
C920        C  0.00718585  0.07334246  0.46551336    -0.17300
C921        C  0.99325586  0.05534186  0.46500947    -0.19600
C922        C  0.98460371  0.05015650  0.48339054     0.20700
C923        C  0.97073146  0.03174080  0.48298221    -0.32600
C924        C  0.96202593  0.02633246  0.50137476     0.01400
C925        C  0.96743941  0.03991012  0.52035534    -0.23900
C926        C  0.02374723  0.11244954  0.52238595    -0.28500
C927        C  0.03256724  0.11701568  0.50391146     0.07100
C928        C  0.02681317  0.10401048  0.48500685    -0.27200
H929        H  0.00475789  0.09994219  0.55515657     0.11800
H930        H  0.98028306  0.06835387  0.55427448     0.12900
H931        H  0.01369068  0.07686703  0.45110989     0.12000
H932        H  0.98928024  0.04534655  0.45022850     0.11300
H933        H  0.96685327  0.02140959  0.46827577     0.16600
H934        H  0.96086278  0.03632157  0.53466570     0.12500
H935        H  0.02788798  0.12238902  0.53707986     0.15400
H936        H  0.03332365  0.10711675  0.47061262     0.15200
C937        C  0.24229724  0.83370458  0.70852352    -0.17700
C938        C  0.23130055  0.85528845  0.71706879    -0.19900
C939        C  0.22861846  0.85613133  0.73875823     0.20800
C940        C  0.23700872  0.83485004  0.75193624    -0.02800
C941        C  0.24817562  0.81325416  0.74333248    -0.05900
C942        C  0.25084845  0.81265285  0.72151695     0.21100
C943        C  0.25671405  0.79239358  0.75660396     0.19200
C944        C  0.25394730  0.79298554  0.77825170    -0.17300
C945        C  0.24284580  0.81423302  0.78675003    -0.19600
C946        C  0.23438685  0.83536742  0.77375991     0.20700
C947        C  0.22363369  0.85748554  0.78230424    -0.32600
C948        C  0.21554027  0.87943468  0.76939308     0.01400
C949        C  0.21791593  0.87822590  0.74755721    -0.23900
C950        C  0.26189489  0.79081538  0.71310415    -0.28500
C951        C  0.27033335  0.76964588  0.72626177     0.07100
C952        C  0.26781936  0.77112943  0.74804005    -0.27200
H953        H  0.24415404  0.83356382  0.69174694     0.11800
H954        H  0.22494691  0.87144969  0.70671384     0.12900
H955        H  0.26038228  0.77699298  0.78862975     0.12000
H956        H  0.24097187  0.81432213  0.80352473     0.11300
H957        H  0.22203169  0.85846196  0.79912498     0.16600
H958        H  0.21154955  0.89473713  0.73743740     0.12500
H959        H  0.26362388  0.78974226  0.69631251     0.15400
H960        H  0.27449972  0.75555405  0.75841840     0.15200
C961        C  0.17403725  0.24963389  0.60456943    -0.17700
C962        C  0.18326502  0.25072029  0.62270771    -0.19900
C963        C  0.17688732  0.24147809  0.64204040     0.20800
C964        C  0.16097320  0.23157372  0.64318065    -0.02800
C965        C  0.15166222  0.23060409  0.62489769    -0.05900
C966        C  0.15827537  0.23939774  0.60548966     0.21100
C967        C  0.13584621  0.22020030  0.62598609     0.19200
C968        C  0.12940473  0.21128405  0.64535632    -0.17300
C969        C  0.13866222  0.21201541  0.66346306    -0.19600
C970        C  0.15447696  0.22180611  0.66248459     0.20700
C971        C  0.16405646  0.22098203  0.68032373    -0.32600
C972        C  0.18002777  0.22978444  0.67911804     0.01400
C973        C  0.18628128  0.24085135  0.66010513    -0.23900
C974        C  0.14911525  0.23725488  0.58727879    -0.28500
C975        C  0.13339482  0.22635878  0.58813011     0.07100
C976        C  0.12681404  0.21832753  0.60765484    -0.27200
H977        H  0.17928264  0.25649065  0.58977104     0.11800
H978        H  0.19545854  0.25832215  0.62156212     0.12900
H979        H  0.11726786  0.20329211  0.64645368     0.12000
H980        H  0.13351265  0.20450280  0.67818792     0.11300
H981        H  0.15924648  0.21258348  0.69506934     0.16600
H982        H  0.19864880  0.24732980  0.65917270     0.12500
H983        H  0.15442792  0.24354744  0.57245195     0.15400
H984        H  0.11471142  0.21022833  0.60869565     0.15200
C985        C  0.22812015  0.08954786  0.75093896    -0.17700
C986        C  0.22764088  0.05786436  0.75863708    -0.19900
C987        C  0.21314736  0.04212887  0.76157762     0.20800
C988        C  0.19899172  0.05855800  0.75684011    -0.02800
C989        C  0.19947921  0.09044157  0.74903152    -0.05900
C990        C  0.21411544  0.10601283  0.74604340     0.21100
C991        C  0.18531140  0.10664511  0.74411968     0.19200
C992        C  0.17081442  0.09101313  0.74710966    -0.17300
C993        C  0.17032705  0.05948984  0.75492216    -0.19600
C994        C  0.18432883  0.04310066  0.75981695     0.20700
C995        C  0.18390308  0.01147488  0.76756021    -0.32600
C996        C  0.19792342  0.99488523  0.77218613     0.01400
C997        C  0.21252504  0.01027506  0.76913104    -0.23900
C998        C  0.21447394  0.13760367  0.73800218    -0.28500
C999        C  0.20038096  0.15371855  0.73284946     0.07100
C1000       C  0.18586209  0.13813164  0.73616736    -0.27200
H1001       H  0.23945379  0.10113417  0.74873760     0.11800
H1002       H  0.23861298  0.04563154  0.76223987     0.12900
H1003       H  0.15984446  0.10316003  0.74336825     0.12000
H1004       H  0.15899162  0.04789197  0.75709332     0.11300
H1005       H  0.17264707  0.99951095  0.76973982     0.16600
H1006       H  0.22335001  0.99756484  0.77287731     0.12500
H1007       H  0.22571089  0.14933430  0.73526887     0.15400
H1008       H  0.17494219  0.15058420  0.73254366     0.15200
C1009       C  0.24536697  0.32082055  0.79010649    -0.17700
C1010       C  0.23532942  0.29720776  0.78187427    -0.19900
C1011       C  0.23320750  0.29440536  0.76016904     0.20800
C1012       C  0.24118595  0.31571021  0.74659085    -0.02800
C1013       C  0.25134331  0.33953199  0.75490764    -0.05900
C1014       C  0.25345535  0.34199533  0.77676912     0.21100
C1015       C  0.25940688  0.36076562  0.74137405     0.19200
C1016       C  0.25714227  0.35816105  0.71965465    -0.17300
C1017       C  0.24704994  0.33455320  0.71140528    -0.19600
C1018       C  0.23907045  0.31313048  0.72473369     0.20700
C1019       C  0.22912221  0.28902295  0.71661619    -0.32600
C1020       C  0.22124505  0.26747036  0.73008174     0.01400
C1021       C  0.22327562  0.27058370  0.75184677    -0.23900
C1022       C  0.26358503  0.36559968  0.78496068    -0.28500
C1023       C  0.27176847  0.38677240  0.77163746     0.07100
C1024       C  0.26961246  0.38413635  0.74980852    -0.27200
H1025       H  0.24684441  0.32245140  0.80692552     0.11800
H1026       H  0.22925988  0.28104569  0.79249619     0.12900
H1027       H  0.26320840  0.37433866  0.70903976     0.12000
H1028       H  0.24553704  0.33296469  0.69459009     0.11300
H1029       H  0.22774047  0.28666408  0.69981351     0.16600
H1030       H  0.21700167  0.25458651  0.76237277     0.12500
H1031       H  0.26491003  0.36779038  0.80178022     0.15400
H1032       H  0.27600348  0.40004340  0.73935414     0.15200
C1033       C  0.24806352  0.83492706  0.28636092    -0.17700
C1034       C  0.23831401  0.85890580  0.27793726    -0.19900
C1035       C  0.23592487  0.86091108  0.25623519     0.20800
C1036       C  0.24356247  0.83880521  0.24283482    -0.02800
C1037       C  0.25345879  0.81462714  0.25135245    -0.05900
C1038       C  0.25563712  0.81258427  0.27323110     0.21100
C1039       C  0.26105876  0.79239289  0.23800705     0.19200
C1040       C  0.25876153  0.79459581  0.21626871    -0.17300
C1041       C  0.24891270  0.81848959  0.20783317    -0.19600
C1042       C  0.24120090  0.84065825  0.22097641     0.20700
C1043       C  0.23112671  0.86451295  0.21269730    -0.32600
C1044       C  0.22336143  0.88653758  0.22601723     0.01400
C1045       C  0.22588919  0.88444772  0.24777783    -0.23900
C1046       C  0.26519599  0.78806665  0.28164548    -0.28500
C1047       C  0.27277443  0.76556683  0.26850840     0.07100
C1048       C  0.27074286  0.76825354  0.24662871    -0.27200
H1049       H  0.24962624  0.83377501  0.30317995     0.11800
H1050       H  0.23255251  0.87578340  0.28843019     0.12900
H1051       H  0.26451649  0.77770088  0.20578234     0.12000
H1052       H  0.24727695  0.81953842  0.19102329     0.11300
H1053       H  0.22943201  0.86608860  0.19591089     0.16600
H1054       H  0.21976687  0.90079115  0.25826830     0.12500
H1055       H  0.26644209  0.78611918  0.29847982     0.15400
H1056       H  0.27675604  0.75162229  0.23622475     0.15200
C1057       C  0.17409985  0.24523288  0.40077962    -0.17700
C1058       C  0.18285625  0.24828119  0.38236361    -0.19900
C1059       C  0.17603006  0.24081496  0.36293848     0.20800
C1060       C  0.16011837  0.23080795  0.36201004    -0.02800
C1061       C  0.15128002  0.22781471  0.38059310    -0.05900
C1062       C  0.15836422  0.23477175  0.40006362     0.21100
C1063       C  0.13548617  0.21714759  0.37971883     0.19200
C1064       C  0.12858113  0.21015302  0.36025426    -0.17300
C1065       C  0.13737210  0.21289462  0.34184088    -0.19600
C1066       C  0.15318535  0.22279630  0.34259334     0.20700
C1067       C  0.16237414  0.22356764  0.32440325    -0.32600
C1068       C  0.17838047  0.23224866  0.32538270     0.01400
C1069       C  0.18501684  0.24183623  0.34454783    -0.23900
C1070       C  0.14968828  0.23066273  0.41851365    -0.28500
C1071       C  0.13398215  0.21965233  0.41784959     0.07100
C1072       C  0.12694334  0.21320403  0.39832435    -0.27200
H1073       H  0.17969747  0.25071711  0.41562272     0.11800
H1074       H  0.19505221  0.25594136  0.38334980     0.12900
H1075       H  0.11645026  0.20206385  0.35929902     0.12000
H1076       H  0.13187654  0.20675195  0.32703780     0.11300
H1077       H  0.15728031  0.21620549  0.30956102     0.16600
H1078       H  0.19741259  0.24815696  0.34531421     0.12500
H1079       H  0.15535195  0.23549318  0.43338420     0.15400
H1080       H  0.11482625  0.20505079  0.39752600     0.15200
C1081       C  0.17157176  0.08897439  0.25919376    -0.17700
C1082       C  0.17191313  0.05760293  0.25098165    -0.19900
C1083       C  0.18623313  0.04365580  0.24469758     0.20800
C1084       C  0.20036881  0.06137480  0.24683700    -0.02800
C1085       C  0.20002213  0.09299942  0.25514531    -0.05900
C1086       C  0.18554837  0.10685904  0.26129559     0.21100
C1087       C  0.21414975  0.11072802  0.25726239     0.19200
C1088       C  0.22847193  0.09676296  0.25100551    -0.17300
C1089       C  0.22881372  0.06545284  0.24270657    -0.19600
C1090       C  0.21484702  0.04756455  0.24059942     0.20700
C1091       C  0.21509141  0.01621587  0.23222286    -0.32600
C1092       C  0.20104282  0.99859501  0.22984413     0.01400
C1093       C  0.18666418  0.01240100  0.23618455    -0.23900
C1094       C  0.18529325  0.13835112  0.26942901    -0.28500
C1095       C  0.19934419  0.15612960  0.27180490     0.07100
C1096       C  0.21373053  0.14204685  0.26567564    -0.27200
H1097       H  0.16036781  0.09926239  0.26389245     0.11800
H1098       H  0.16096587  0.04428968  0.24946885     0.12900
H1099       H  0.23941785  0.11008303  0.25250703     0.12000
H1100       H  0.24001202  0.05521689  0.23793975     0.11300
H1101       H  0.22616455  0.00573628  0.22713334     0.16600
H1102       H  0.17582564  0.99872551  0.23450343     0.12500
H1103       H  0.17410719  0.14910408  0.27376553     0.15400
H1104       H  0.22466347  0.15523247  0.26777146     0.15200
C1105       C  0.27189964  0.29640328  0.24689997    -0.17700
C1106       C  0.26191085  0.27451071  0.25697551    -0.19900
C1107       C  0.24631535  0.28314313  0.26168970     0.20800
C1108       C  0.24077201  0.31431544  0.25653299    -0.02800
C1109       C  0.25084691  0.33639230  0.24630699    -0.05900
C1110       C  0.26645530  0.32729471  0.24136903     0.21100
C1111       C  0.24527625  0.36744522  0.24092269     0.19200
C1112       C  0.22974610  0.37625177  0.24596562    -0.17300
C1113       C  0.21975165  0.35436232  0.25609544    -0.19600
C1114       C  0.22511311  0.32327103  0.26132914     0.20700
C1115       C  0.21500738  0.30072240  0.27080602    -0.32600
C1116       C  0.22032762  0.26924958  0.27528340     0.01400
C1117       C  0.23608047  0.26089763  0.27105956    -0.23900
C1118       C  0.27639148  0.34929080  0.23113331    -0.28500
C1119       C  0.27098602  0.38038986  0.22583041     0.07100
C1120       C  0.25534983  0.38916408  0.23066824    -0.27200
H1121       H  0.28386827  0.28909973  0.24332566     0.11800
H1122       H  0.26634538  0.25068636  0.26090637     0.12900
H1123       H  0.22530539  0.40005747  0.24200316     0.12000
H1124       H  0.20778247  0.36165938  0.25967308     0.11300
H1125       H  0.20285411  0.30721586  0.27395647     0.16600
H1126       H  0.24029263  0.23680627  0.27479389     0.12500
H1127       H  0.28847165  0.34249167  0.22777984     0.15400
H1128       H  0.25102392  0.41296930  0.22645324     0.15200
C1129       C  0.98686035  0.07462866  0.03751533    -0.17700
C1130       C  0.00107242  0.05748394  0.03750372    -0.19900
C1131       C  0.00891361  0.05097832  0.01863524     0.20800
C1132       C  0.00238413  0.06188659  0.99959031    -0.02800
C1133       C  0.98802768  0.07922246  0.99960683    -0.05900
C1134       C  0.98024565  0.08558174  0.01866177     0.21100
C1135       C  0.98147795  0.09016411  0.98058454     0.19200
C1136       C  0.98934837  0.08369442  0.96171357    -0.17300
C1137       C  0.00357061  0.06649645  0.96169362    -0.19600
C1138       C  0.01017307  0.05544401  0.98054179     0.20700
C1139       C  0.02439418  0.03802660  0.98066631    -0.32600
C1140       C  0.03097697  0.02689185  0.99960260     0.01400
C1141       C  0.02312458  0.03363322  0.01851689    -0.23900
C1142       C  0.96601176  0.10284453  0.01859300    -0.28500
C1143       C  0.95935819  0.11406482  0.99972688     0.07100
C1144       C  0.96721364  0.10744530  0.98075826    -0.27200
H1145       H  0.98103761  0.07933135  0.05229582     0.11800
H1146       H  0.00592675  0.04927790  0.05227105     0.12900
H1147       H  0.98450134  0.09193761  0.94695152     0.12000
H1148       H  0.00939782  0.06179828  0.94691612     0.11300
H1149       H  0.03032614  0.03335807  0.96597770     0.16600
H1150       H  0.02790866  0.02508193  0.03321910     0.12500
H1151       H  0.96022116  0.10753892  0.03335991     0.15400
H1152       H  0.96233926  0.11576426  0.96606005     0.15200
C1153       C  0.13919636  0.94448987  0.16045294    -0.17700
C1154       C  0.12988902  0.94532280  0.14236186    -0.19900
C1155       C  0.13583349  0.93382903  0.12324848     0.20800
C1156       C  0.15119322  0.92076658  0.12246671    -0.02800
C1157       C  0.16059261  0.91989746  0.14073218    -0.05900
C1158       C  0.15460906  0.93216313  0.15973759     0.21100
C1159       C  0.17610929  0.90755393  0.13983604     0.19200
C1160       C  0.18194328  0.89555746  0.12080637    -0.17300
C1161       C  0.17261566  0.89635274  0.10273018    -0.19600
C1162       C  0.15729583  0.90920168  0.10335463     0.20700
C1163       C  0.14811516  0.91121809  0.08511054    -0.32600
C1164       C  0.13287921  0.92484705  0.08557661     0.01400
C1165       C  0.12678511  0.93569805  0.10486389    -0.23900
C1166       C  0.16431623  0.93289987  0.17751046    -0.28500
C1167       C  0.18003575  0.92199765  0.17652020     0.07100
C1168       C  0.18570279  0.90850708  0.15776939    -0.27200
H1169       H  0.13442358  0.95397133  0.17494149     0.11800
H1170       H  0.11810540  0.95535785  0.14326591     0.12900
H1171       H  0.19381393  0.88598363  0.11982798     0.12000
H1172       H  0.17747209  0.88729941  0.08817783     0.11300
H1173       H  0.15305994  0.90265357  0.07052229     0.16600
H1174       H  0.11506536  0.94597049  0.10566030     0.12500
H1175       H  0.15980312  0.94293104  0.19200534     0.15400
H1176       H  0.19782694  0.90032208  0.15683903     0.15200
C1177       C  0.13468825  0.93681927  0.83973449    -0.17700
C1178       C  0.12542209  0.93599118  0.85781804    -0.19900
C1179       C  0.13153106  0.92342432  0.87655539     0.20800
C1180       C  0.14700727  0.91091064  0.87694305    -0.02800
C1181       C  0.15634064  0.91157261  0.85864987    -0.05900
C1182       C  0.15019422  0.92498336  0.84005203     0.21100
C1183       C  0.17193537  0.89956673  0.85911645     0.19200
C1184       C  0.17796034  0.88664741  0.87779466    -0.17300
C1185       C  0.16871570  0.88607463  0.89592304    -0.19600
C1186       C  0.15328273  0.89838314  0.89570257     0.20700
C1187       C  0.14417441  0.89905625  0.91402624    -0.32600
C1188       C  0.12887523  0.91241326  0.91400369     0.01400
C1189       C  0.12255992  0.92392166  0.89499948    -0.23900
C1190       C  0.15979788  0.92715099  0.82227412    -0.28500
C1191       C  0.17546521  0.91602223  0.82276792     0.07100
C1192       C  0.18136082  0.90158210  0.84108727    -0.27200
H1193       H  0.12978931  0.94712017  0.82555631     0.11800
H1194       H  0.11355121  0.94564886  0.85722768     0.12900
H1195       H  0.18990099  0.87737380  0.87845920     0.12000
H1196       H  0.17371842  0.87634936  0.91020672     0.11300
H1197       H  0.14922112  0.88969211  0.92835074     0.16600
H1198       H  0.11081223  0.93409491  0.89452253     0.12500
H1199       H  0.15522093  0.93818021  0.80811874     0.15400
H1200       H  0.19348692  0.89329712  0.84156383     0.15200
loop_ 
_geom_bond_atom_site_label_1 
_geom_bond_atom_site_label_2 
_geom_bond_distance 
_geom_bond_site_symmetry_2 
_ccdc_geom_bond_type 
N1            N2   1.320       .  A
N1            C5   1.346       .  A
N1           Cu9   2.077       .  S
N2            C3   1.344       .  A
N2           Cu8   2.075       .  S
C3            C4   1.390       .  A
C3            H6   1.081       .  S
C4            C5   1.391       .  A
C4         C1164   1.491       .  S
C5            H7   1.081       .  S
Cu8          N11   2.075   1_554  S
Cu9          N19   2.078       .  S
Cu10         N12   2.076       .  S
Cu10         N18   2.076       .  S
N11          N12   1.320       .  A
N11          C15   1.344       .  A
N12          C13   1.345       .  A
C13          C14   1.391       .  A
C13          H16   1.081       .  S
C14          C15   1.390       .  A
C14        C1188   1.491       .  S
C15          H17   1.081       .  S
N18          N19   1.322   1_556  A
N18          C22   1.345       .  A
N19          C20   1.344   1_565  A
C20          C21   1.389   1_554  A
C20          H23   1.081       .  S
C21          C22   1.388   1_545  A
C21        C1140   1.488       .  S
C22          H24   1.081       .  S
C25          C26   1.404       .  A
C25          C30   1.401       .  A
C25        C1068   1.476       .  S
C26          C27   1.406       .  A
C26          H31   1.084       .  S
C27          C28   1.406       .  A
C27        C1116   1.482       .  S
C28          C29   1.404       .  A
C28          H32   1.083       .  S
C29          C30   1.401       .  A
C29        C1095   1.486       .  S
C30          H33   1.084       .  S
C34          C35   1.403       .  A
C34          C39   1.409       .  A
C34        C1167   1.486       .  S
C35          C36   1.398       .  A
C35          H40   1.084       .  S
C36          C37   1.401       .  A
C36        C1092   1.479       .  S
C37          C38   1.407       .  A
C37          H41   1.083       .  S
C38          C39   1.411       .  A
C38        C1044   1.492       .  S
C39          H42   1.083       .  S
C43          C44   1.402       .  A
C43          C48   1.399       .  A
C43         C972   1.475       .  S
C44          C45   1.407       .  A
C44          H49   1.083       .  S
C45          C46   1.409       .  A
C45        C1020   1.486       .  S
C46          C47   1.404       .  A
C46          H50   1.083       .  S
C47          C48   1.400       .  A
C47         C999   1.483       .  S
C48          H51   1.084       .  S
C52          C53   1.401       .  A
C52          C57   1.406       .  A
C52        C1191   1.482       .  S
C53          C54   1.400       .  A
C53          H58   1.084       .  S
C54          C55   1.401       .  A
C54         C996   1.478       .  S
C55          C56   1.406       .  A
C55          H59   1.084       .  S
C56          C57   1.411       .  A
C56         C948   1.487       .  S
C57          H60   1.083       .  S
N61          N62   1.320       .  A
N61          C65   1.346       .  A
N61         Cu69   2.078       .  S
N62          C63   1.342       .  A
N62         Cu68   2.060       .  S
C63          C64   1.386       .  A
C63          H66   1.081       .  S
C64          C65   1.390       .  A
C64        C1071   1.484       .  S
C65          H67   1.081       .  S
Cu68         N71   2.060       .  S
Cu69         N79   2.079       .  S
Cu70         N72   2.071       .  S
Cu70         N78   2.072       .  S
N71          N72   1.320       .  A
N71          C75   1.342       .  A
N72          C73   1.343       .  A
C73          C74   1.389       .  A
C73          H76   1.081       .  S
C74          C75   1.387       .  A
C74         C975   1.484       .  S
C75          H77   1.081       .  S
N78          N79   1.321       .  A
N78          C82   1.346       .  A
N79          C80   1.342       .  A
C80          C81   1.390       .  A
C80          H83   1.080       .  S
C81          C82   1.389       .  A
C81         C927   1.490       .  S
C82          H84   1.081       .  S
C85          C86   1.402       .  A
C85          C90   1.406       .  A
C85         C876   1.480       .  S
C86          C87   1.400       .  A
C86          H91   1.084       .  S
C87          C88   1.404       .  A
C87         C900   1.486       .  S
C88          C89   1.406       .  A
C88          H92   1.083       .  S
C89          C90   1.410       .  A
C89        C1119   1.487       .  S
C90          H93   1.083       .  S
C94          C95   1.410       .  A
C94          C99   1.406       .  A
C94         C855   1.493       .  S
C95          C96   1.415       .  A
C95         H100   1.083       .  S
C96          C97   1.408       .  A
C96        C1047   1.495       .  S
C97          C98   1.400       .  A
C97         H101   1.083       .  S
C98          C99   1.399       .  A
C98         C903   1.480       .  S
C99         H102   1.084       .  S
N103        N104   1.319       .  A
N103        C107   1.347       .  A
N103       Cu111   2.075       .  S
N104        C105   1.340       .  A
N104       Cu110   2.060       .  S
C105        C106   1.387       .  A
C105        H108   1.080       .  S
C106        C107   1.392       .  A
C106        C879   1.488       .  S
C107        H109   1.081       .  S
Cu110       N113   2.060   1_554  S
Cu111       N121   2.076       .  S
Cu112       N114   2.083       .  S
Cu112       N120   2.083       .  S
N113        N114   1.319       .  A
N113        C117   1.343       .  A
N114        C115   1.345       .  A
C115        C116   1.393       .  A
C115        H118   1.081       .  S
C116        C117   1.387       .  A
C116        C828   1.489       .  S
C117        H119   1.081       .  S
N120        N121   1.322   1_556  A
N120        C124   1.346       .  A
N121        C122   1.344       .  A
C122        C123   1.387   1_554  A
C122        H125   1.081       .  S
C123        C124   1.389       .  A
C123        C807   1.488       .  S
C124        H126   1.081       .  S
C127        C128   1.404       .  A
C127        C132   1.402       .  A
C127        C831   1.480       .  S
C128        C129   1.411       .  A
C128        H133   1.083       .  S
C129        C130   1.406       .  A
C129       C1023   1.487       .  S
C130        C131   1.402       .  A
C130        H134   1.083       .  S
C131        C132   1.398       .  A
C131        C783   1.478       .  S
C132        H135   1.084       .  S
C136        C137   1.404       .  A
C136        C141   1.410       .  A
C136        C759   1.486       .  S
C137        C138   1.398       .  A
C137        H142   1.084       .  S
C138        C139   1.400       .  A
C138        C780   1.483       .  S
C139        C140   1.407       .  A
C139        H143   1.083       .  S
C140        C141   1.412       .  A
C140        C951   1.491       .  S
C141        H144   1.083       .  S
N145        N146   1.321       .  A
N145        C149   1.347       .  A
N145       Cu153   2.081       .  S
N146        C147   1.343       .  A
N146       Cu152   2.071       .  S
C147        C148   1.388       .  A
C147        H150   1.081       .  S
C148        C149   1.392       .  A
C148        C756   1.491       .  S
C149        H151   1.081       .  S
Cu152       N155   2.071       .  S
Cu153       N163   2.082       .  S
Cu154       N156   2.091       .  S
Cu154       N162   2.091       .  S
N155        N156   1.320       .  A
N155        C159   1.346       .  A
N156        C157   1.346       .  A
C157        C158   1.394       .  A
C157        H160   1.081       .  S
C158        C159   1.389       .  A
C158        C852   1.495       .  S
C159        H161   1.081       .  S
N162        N163   1.322       .  A
N162        C166   1.347       .  A
N163        C164   1.346       .  A
C164        C165   1.390       .  A
C164        H167   1.081       .  S
C165        C166   1.392       .  A
C165        C735   1.494       .  S
C166        H168   1.081       .  S
N169        N170   1.321       .  A
N169        C173   1.344       .  A
N169       Cu177   2.076       .  S
N170        C171   1.343       .  A
N170       Cu176   2.067       .  S
C171        C172   1.386       .  A
C171        H174   1.081       .  S
C172        C173   1.389       .  A
C172        C708   1.485       .  S
C173        H175   1.081       .  S
Cu176       N179   2.067   1_556  S
Cu177       N187   2.077       .  S
Cu178       N180   2.083       .  S
Cu178       N186   2.082       .  S
N179        N180   1.320       .  A
N179        C183   1.344       .  A
N180        C181   1.346       .  A
C181        C182   1.391       .  A
C181        H184   1.081       .  S
C182        C183   1.387       .  A
C182        C684   1.489       .  S
C183        H185   1.081       .  S
N186        N187   1.322   1_554  A
N186        C190   1.345       .  A
N187        C188   1.346       .  A
C188        C189   1.389       .  A
C188        H191   1.081       .  S
C189        C190   1.389   1_556  A
C189        C804   1.489       .  S
C190        H192   1.081       .  S
C193        C194   1.404       .  A
C193        C198   1.406       .  A
C193        C612   1.482       .  S
C194        C195   1.401       .  A
C194        H199   1.084       .  S
C195        C196   1.401       .  A
C195        C639   1.480       .  S
C196        C197   1.404       .  A
C196        H200   1.084       .  S
C197        C198   1.408       .  A
C197        C663   1.481       .  S
C198        H201   1.084       .  S
C202        C203   1.403       .  A
C202        C207   1.403       .  A
C202        C687   1.480       .  S
C203        C204   1.404       .  A
C203        H208   1.084       .  S
C204        C205   1.403       .  A
C204        C636   1.486       .  S
C205        C206   1.405       .  A
C205        H209   1.083       .  S
C206        C207   1.407       .  A
C206        C591   1.481       .  S
C207        H210   1.084       .  S
C211        C212   1.401       .  A
C211        C216   1.410       .  A
C211        C519   1.487       .  S
C212        C213   1.397       .  A
C212        H217   1.084       .  S
C213        C214   1.396       .  A
C213        C540   1.473       .  S
C214        C215   1.404       .  A
C214        H218   1.084       .  S
C215        C216   1.412       .  A
C215        C564   1.484       .  S
C216        H219   1.083       .  S
C220        C221   1.399       .  A
C220        C225   1.402       .  A
C220        C711   1.473       .  S
C221        C222   1.399       .  A
C221        H226   1.084       .  S
C222        C223   1.399       .  A
C222        C543   1.475       .  S
C223        C224   1.402       .  A
C223        H227   1.084       .  S
C224        C225   1.406       .  A
C224        C492   1.474       .  S
C225        H228   1.084       .  S
N229        N230   1.320       .  A
N229        C233   1.347       .  A
N229       Cu237   2.081       .  S
N230        C231   1.343       .  A
N230       Cu236   2.070       .  S
C231        C232   1.389       .  A
C231        H234   1.080       .  S
C232        C233   1.392       .  A
C232        C516   1.491       .  S
C233        H235   1.081       .  S
Cu236       N239   2.070       .  S
Cu237       N247   2.082       .  S
Cu238       N240   2.086       .  S
Cu238       N246   2.086       .  S
N239        N240   1.320       .  A
N239        C243   1.344       .  A
N240        C241   1.346       .  A
C241        C242   1.392       .  A
C241        H244   1.081       .  S
C242        C243   1.389       .  A
C242        C615   1.492       .  S
C243        H245   1.081       .  S
N246        N247   1.322       .  A
N246        C250   1.347       .  A
N247        C248   1.345       .  A
C248        C249   1.389       .  A
C248        H251   1.081       .  S
C249        C250   1.390       .  A
C249        C732   1.492       .  S
C250        H252   1.081       .  S
N253        N254   1.321       .  A
N253        C257   1.344       .  A
N253       Cu261   2.074       .  S
N254        C255   1.344       .  A
N254       Cu260   2.075       .  S
C255        C256   1.389       .  A
C255        H258   1.081       .  S
C256        C257   1.389       .  A
C256        C444   1.489       .  S
C257        H259   1.081       .  S
Cu260       N263   2.075   1_554  S
Cu261       N271   2.074       .  S
Cu262       N264   2.074       .  S
Cu262       N270   2.074       .  S
N263        N264   1.321       .  A
N263        C267   1.345       .  A
N264        C265   1.343       .  A
C265        C266   1.389       .  A
C265        H268   1.081       .  S
C266        C267   1.390       .  A
C266        C468   1.490       .  S
C267        H269   1.081       .  S
N270        N271   1.320   1_556  A
N270        C274   1.345       .  A
N271        C272   1.344       .  A
C272        C273   1.390   1_554  A
C272        H275   1.081       .  S
C273        C274   1.390       .  A
C273       C1143   1.491       .  S
C274        H276   1.081       .  S
C277        C278   1.404       .  A
C277        C282   1.402       .  A
C277        C447   1.479       .  S
C278        C279   1.406       .  A
C278        H283   1.084       .  S
C279        C280   1.404       .  A
C279        C660   1.478       .  S
C280        C281   1.401       .  A
C280        H284   1.084       .  S
C281        C282   1.402       .  A
C281        C423   1.481       .  S
C282        H285   1.084       .  S
C286        C287   1.403       .  A
C286        C291   1.401       .  A
C286        C396   1.479       .  S
C287        C288   1.408       .  A
C287        H292   1.083       .  S
C288        C289   1.406       .  A
C288        C588   1.481       .  S
C289        C290   1.400       .  A
C289        H293   1.084       .  S
C290        C291   1.400       .  A
C290        C420   1.477       .  S
C291        H294   1.084       .  S
C295        C296   1.401       .  A
C295        C300   1.407       .  A
C295        C471   1.483       .  S
C296        C297   1.402       .  A
C296        H301   1.084       .  S
C297        C298   1.400       .  A
C297        C372   1.480       .  S
C298        C299   1.405       .  A
C298        H302   1.084       .  S
C299        C300   1.408       .  A
C299        C567   1.483       .  S
C300        H303   1.083       .  S
C304        C305   1.398       .  A
C304        C309   1.401       .  A
C304        C348   1.469       .  S
C305        C306   1.399       .  A
C305        H310   1.084       .  S
C306        C307   1.399       .  A
C306        C375   1.476       .  S
C307        C308   1.405       .  A
C307        H311   1.084       .  S
C308        C309   1.404       .  A
C308        C495   1.474       .  S
C309        H312   1.084       .  S
N313        N314   1.320       .  A
N313        C317   1.346       .  A
N313       Cu321   2.088       .  S
N314        C315   1.340       .  A
N314       Cu320   2.051       .  S
C315        C316   1.385       .  A
C315        H318   1.081       .  S
C316        C317   1.393       .  A
C316        C399   1.487       .  S
C317        H319   1.081       .  S
Cu320       N323   2.050       .  S
Cu321       N331   2.089       .  S
Cu322       N324   2.069       .  S
Cu322       N330   2.070       .  S
N323        N324   1.319       .  A
N323        C327   1.340       .  A
N324        C325   1.344       .  A
C325        C326   1.389       .  A
C325        H328   1.081       .  S
C326        C327   1.385       .  A
C326        C351   1.480       .  S
C327        H329   1.081       .  S
N330        N331   1.322       .  A
N330        C334   1.344       .  A
N331        C332   1.346       .  A
C332        C333   1.392   1_565  A
C332        H335   1.081   1_565  S
C333        C334   1.386   1_545  A
C333        C924   1.490       .  S
C334        H336   1.081       .  S
C337        C338   1.397       .  A
C337        C342   1.403       .  A
C337        H353   1.084       .  S
C338        C339   1.402       .  A
C338        H354   1.084       .  S
C339        C349   1.400       .  A
C339        C340   1.413       .  A
C340        C346   1.411       .  A
C340        C341   1.409       .  A
C341        C343   1.411       .  A
C341        C342   1.410       .  A
C342        C350   1.399       .  A
C343        C352   1.401       .  A
C343        C344   1.403       .  A
C344        C345   1.398       .  A
C344        H355   1.084       .  S
C345        C346   1.403       .  A
C345        H356   1.084       .  S
C346        C347   1.399       .  A
C347        C348   1.404       .  A
C347        H357   1.085       .  S
C348        C349   1.402       .  A
C349        H358   1.085       .  S
C350        C351   1.408       .  A
C350        H359   1.082       .  S
C351        C352   1.406       .  A
C352        H360   1.083       .  S
C361        C362   1.400       .  A
C361        C366   1.404       .  A
C361        H377   1.084       .  S
C362        C363   1.404       .  A
C362        H378   1.084       .  S
C363        C373   1.403       .  A
C363        C364   1.411       .  A
C364        C370   1.411       .  A
C364        C365   1.409       .  A
C365        C367   1.411       .  A
C365        C366   1.412       .  A
C366        C374   1.403       .  A
C367        C376   1.396       .  A
C367        C368   1.402       .  A
C368        C369   1.395       .  A
C368        H379   1.084       .  S
C369        C370   1.402       .  A
C369        H380   1.084       .  S
C370        C371   1.397       .  A
C371        C372   1.404       .  A
C371        H381   1.084       .  S
C372        C373   1.407       .  A
C373        H382   1.084       .  S
C374        C375   1.406   1_545  A
C374        H383   1.084   1_545  S
C375        C376   1.403   1_565  A
C376        H384   1.085   1_545  S
C385        C386   1.399       .  A
C385        C390   1.405       .  A
C385        H401   1.084       .  S
C386        C387   1.403       .  A
C386        H402   1.084       .  S
C387        C397   1.404       .  A
C387        C388   1.413       .  A
C388        C394   1.410       .  A
C388        C389   1.411       .  A
C389        C391   1.411       .  A
C389        C390   1.409       .  A
C390        C398   1.402       .  A
C391        C400   1.401       .  A
C391        C392   1.403       .  A
C392        C393   1.397       .  A
C392        H403   1.084       .  S
C393        C394   1.403       .  A
C393        H404   1.084       .  S
C394        C395   1.399       .  A
C395        C396   1.406       .  A
C395        H405   1.085       .  S
C396        C397   1.405       .  A
C397        H406   1.084       .  S
C398        C399   1.411       .  A
C398        H407   1.081       .  S
C399        C400   1.407       .  A
C400        H408   1.082       .  S
C409        C410   1.400       .  A
C409        C414   1.404       .  A
C409        H425   1.084       .  S
C410        C411   1.404       .  A
C410        H426   1.084       .  S
C411        C421   1.404       .  A
C411        C412   1.412       .  A
C412        C418   1.411       .  A
C412        C413   1.409       .  A
C413        C415   1.411       .  A
C413        C414   1.411       .  A
C414        C422   1.403       .  A
C415        C424   1.398       .  A
C415        C416   1.402       .  A
C416        C417   1.395       .  A
C416        H427   1.084       .  S
C417        C418   1.402       .  A
C417        H428   1.084       .  S
C418        C419   1.396       .  A
C419        C420   1.404   1_545  A
C419        H429   1.085   1_545  S
C420        C421   1.406   1_565  A
C421        H430   1.084       .  S
C422        C423   1.408       .  A
C422        H431   1.084       .  S
C423        C424   1.405       .  A
C424        H432   1.084       .  S
C433        C434   1.399       .  A
C433        C438   1.403       .  A
C433        H449   1.084       .  S
C434        C435   1.404       .  A
C434        H450   1.083       .  S
C435        C445   1.403       .  A
C435        C436   1.410       .  A
C436        C442   1.410       .  A
C436        C437   1.411       .  A
C437        C439   1.411       .  A
C437        C438   1.412       .  A
C438        C446   1.403       .  A
C439        C448   1.401       .  A
C439        C440   1.403       .  A
C440        C441   1.398       .  A
C440        H451   1.084       .  S
C441        C442   1.404       .  A
C441        H452   1.084       .  S
C442        C443   1.402       .  A
C443        C444   1.409       .  A
C443        H453   1.082       .  S
C444        C445   1.409       .  A
C445        H454   1.082       .  S
C446        C447   1.405       .  A
C446        H455   1.084       .  S
C447        C448   1.406       .  A
C448        H456   1.085       .  S
C457        C458   1.399       .  A
C457        C462   1.403       .  A
C457        H473   1.084       .  S
C458        C459   1.404       .  A
C458        H474   1.084       .  S
C459        C469   1.402       .  A
C459        C460   1.410       .  A
C460        C466   1.410       .  A
C460        C461   1.412       .  A
C461        C463   1.412       .  A
C461        C462   1.411       .  A
C462        C470   1.402       .  A
C463        C472   1.403       .  A
C463        C464   1.403       .  A
C464        C465   1.399       .  A
C464        H475   1.084       .  S
C465        C466   1.404       .  A
C465        H476   1.083       .  S
C466        C467   1.404       .  A
C467        C468   1.409       .  A
C467        H477   1.082       .  S
C468        C469   1.409       .  A
C469        H478   1.082       .  S
C470        C471   1.408       .  A
C470        H479   1.084       .  S
C471        C472   1.405       .  A
C472        H480   1.084       .  S
C481        C482   1.396       .  A
C481        C486   1.402       .  A
C481        H497   1.084       .  S
C482        C483   1.402       .  A
C482        H498   1.084       .  S
C483        C493   1.399       .  A
C483        C484   1.413       .  A
C484        C490   1.411       .  A
C484        C485   1.408       .  A
C485        C487   1.413       .  A
C485        C486   1.411       .  A
C486        C494   1.397       .  A
C487        C496   1.402       .  A
C487        C488   1.403       .  A
C488        C489   1.399       .  A
C488        H499   1.084       .  S
C489        C490   1.404       .  A
C489        H500   1.084       .  S
C490        C491   1.400       .  A
C491        C492   1.406       .  A
C491        H501   1.084       .  S
C492        C493   1.402       .  A
C493        H502   1.084       .  S
C494        C495   1.403       .  A
C494        H503   1.085       .  S
C495        C496   1.405       .  A
C496        H504   1.084       .  S
C505        C506   1.399       .  A
C505        C510   1.403       .  A
C505        H521   1.084       .  S
C506        C507   1.404       .  A
C506        H522   1.084       .  S
C507        C517   1.402       .  A
C507        C508   1.409       .  A
C508        C514   1.411       .  A
C508        C509   1.412       .  A
C509        C511   1.409       .  A
C509        C510   1.413       .  A
C510        C518   1.405       .  A
C511        C520   1.401       .  A
C511        C512   1.404       .  A
C512        C513   1.399       .  A
C512        H523   1.084       .  S
C513        C514   1.404       .  A
C513        H524   1.084       .  S
C514        C515   1.405       .  A
C515        C516   1.409       .  A
C515        H525   1.082       .  S
C516        C517   1.410       .  A
C517        H526   1.081       .  S
C518        C519   1.406       .  A
C518        H527   1.084       .  S
C519        C520   1.410       .  A
C520        H528   1.084       .  S
C529        C530   1.396       .  A
C529        C534   1.402       .  A
C529        H545   1.084       .  S
C530        C531   1.402       .  A
C530        H546   1.084       .  S
C531        C541   1.396       .  A
C531        C532   1.411       .  A
C532        C538   1.412       .  A
C532        C533   1.407       .  A
C533        C535   1.411       .  A
C533        C534   1.411       .  A
C534        C542   1.397       .  A
C535        C544   1.399       .  A
C535        C536   1.403       .  A
C536        C537   1.398       .  A
C536        H547   1.084       .  S
C537        C538   1.403       .  A
C537        H548   1.084       .  S
C538        C539   1.400       .  A
C539        C540   1.404       .  A
C539        H549   1.084       .  S
C540        C541   1.403       .  A
C541        H550   1.085       .  S
C542        C543   1.404       .  A
C542        H551   1.084       .  S
C543        C544   1.406       .  A
C544        H552   1.084       .  S
C553        C554   1.398       .  A
C553        C558   1.403       .  A
C553        H569   1.084       .  S
C554        C555   1.403       .  A
C554        H570   1.084       .  S
C555        C565   1.402       .  A
C555        C556   1.412       .  A
C556        C562   1.410       .  A
C556        C557   1.411       .  A
C557        C559   1.413       .  A
C557        C558   1.410       .  A
C558        C566   1.400       .  A
C559        C568   1.404       .  A
C559        C560   1.403       .  A
C560        C561   1.399       .  A
C560        H571   1.084       .  S
C561        C562   1.404       .  A
C561        H572   1.084       .  S
C562        C563   1.401       .  A
C563        C564   1.409       .  A
C563        H573   1.084       .  S
C564        C565   1.405       .  A
C565        H574   1.084       .  S
C566        C567   1.407       .  A
C566        H575   1.084       .  S
C567        C568   1.406       .  A
C568        H576   1.084       .  S
C577        C578   1.398       .  A
C577        C582   1.403       .  A
C577        H593   1.084       .  S
C578        C579   1.403       .  A
C578        H594   1.084       .  S
C579        C589   1.401       .  A
C579        C580   1.412       .  A
C580        C586   1.411       .  A
C580        C581   1.411       .  A
C581        C583   1.412       .  A
C581        C582   1.411       .  A
C582        C590   1.401       .  A
C583        C592   1.403       .  A
C583        C584   1.403       .  A
C584        C585   1.399       .  A
C584        H595   1.084       .  S
C585        C586   1.403       .  A
C585        H596   1.084       .  S
C586        C587   1.401       .  A
C587        C588   1.407       .  A
C587        H597   1.084       .  S
C588        C589   1.406       .  A
C589        H598   1.084       .  S
C590        C591   1.406       .  A
C590        H599   1.084       .  S
C591        C592   1.406       .  A
C592        H600   1.084       .  S
C601        C602   1.400       .  A
C601        C606   1.405       .  A
C601        H617   1.083       .  S
C602        C603   1.403       .  A
C602        H618   1.084       .  S
C603        C613   1.405       .  A
C603        C604   1.413       .  A
C604        C610   1.411       .  A
C604        C605   1.413       .  A
C605        C607   1.411       .  A
C605        C606   1.410       .  A
C606        C614   1.404       .  A
C607        C616   1.404       .  A
C607        C608   1.404       .  A
C608        C609   1.398       .  A
C608        H619   1.084       .  S
C609        C610   1.403       .  A
C609        H620   1.084       .  S
C610        C611   1.401       .  A
C611        C612   1.406       .  A
C611        H621   1.084       .  S
C612        C613   1.406       .  A
C613        H622   1.084       .  S
C614        C615   1.411       .  A
C614        H623   1.082       .  S
C615        C616   1.409       .  A
C616        H624   1.082       .  S
C625        C626   1.399       .  A
C625        C630   1.403       .  A
C625        H641   1.084       .  S
C626        C627   1.404       .  A
C626        H642   1.084       .  S
C627        C637   1.403       .  A
C627        C628   1.412       .  A
C628        C634   1.411       .  A
C628        C629   1.411       .  A
C629        C631   1.412       .  A
C629        C630   1.411       .  A
C630        C638   1.402       .  A
C631        C640   1.401       .  A
C631        C632   1.403       .  A
C632        C633   1.398       .  A
C632        H643   1.084       .  S
C633        C634   1.403       .  A
C633        H644   1.084       .  S
C634        C635   1.400       .  A
C635        C636   1.407       .  A
C635        H645   1.084       .  S
C636        C637   1.408       .  A
C637        H646   1.084       .  S
C638        C639   1.406       .  A
C638        H647   1.084       .  S
C639        C640   1.405       .  A
C640        H648   1.084       .  S
C649        C650   1.398       .  A
C649        C654   1.403       .  A
C649        H665   1.084       .  S
C650        C651   1.403       .  A
C650        H666   1.084       .  S
C651        C661   1.402       .  A
C651        C652   1.412       .  A
C652        C658   1.411       .  A
C652        C653   1.411       .  A
C653        C655   1.412       .  A
C653        C654   1.411       .  A
C654        C662   1.401       .  A
C655        C664   1.403       .  A
C655        C656   1.403       .  A
C656        C657   1.399       .  A
C656        H667   1.084       .  S
C657        C658   1.403       .  A
C657        H668   1.084       .  S
C658        C659   1.401       .  A
C659        C660   1.406       .  A
C659        H669   1.084       .  S
C660        C661   1.404       .  A
C661        H670   1.084       .  S
C662        C663   1.407       .  A
C662        H671   1.084       .  S
C663        C664   1.405       .  A
C664        H672   1.084       .  S
C673        C674   1.400       .  A
C673        C678   1.404       .  A
C673        H689   1.084       .  S
C674        C675   1.405       .  A
C674        H690   1.083       .  S
C675        C685   1.404       .  A
C675        C676   1.410       .  A
C676        C682   1.411       .  A
C676        C677   1.413       .  A
C677        C679   1.411       .  A
C677        C678   1.413       .  A
C678        C686   1.406       .  A
C679        C688   1.401       .  A
C679        C680   1.403       .  A
C680        C681   1.398       .  A
C680        H691   1.084       .  S
C681        C682   1.403       .  A
C681        H692   1.084       .  S
C682        C683   1.403       .  A
C683        C684   1.408       .  A
C683        H693   1.083       .  S
C684        C685   1.410       .  A
C685        H694   1.082       .  S
C686        C687   1.406       .  A
C686        H695   1.084       .  S
C687        C688   1.405       .  A
C688        H696   1.085       .  S
C697        C698   1.399       .  A
C697        C702   1.403       .  A
C697        H713   1.084       .  S
C698        C699   1.404       .  A
C698        H714   1.083       .  S
C699        C709   1.402       .  A
C699        C700   1.410       .  A
C700        C706   1.411       .  A
C700        C701   1.410       .  A
C701        C703   1.411       .  A
C701        C702   1.413       .  A
C702        C710   1.403       .  A
C703        C712   1.398       .  A
C703        C704   1.402       .  A
C704        C705   1.397       .  A
C704        H715   1.084       .  S
C705        C706   1.403       .  A
C705        H716   1.084       .  S
C706        C707   1.401       .  A
C707        C708   1.407       .  A
C707        H717   1.083       .  S
C708        C709   1.409       .  A
C709        H718   1.082       .  S
C710        C711   1.404       .  A
C710        H719   1.084       .  S
C711        C712   1.404       .  A
C712        H720   1.085       .  S
C721        C722   1.400       .  A
C721        C726   1.404       .  A
C721        H737   1.084       .  S
C722        C723   1.404       .  A
C722        H738   1.083       .  S
C723        C733   1.405       .  A
C723        C724   1.411       .  A
C724        C730   1.410       .  A
C724        C725   1.414       .  A
C725        C727   1.410       .  A
C725        C726   1.410       .  A
C726        C734   1.405       .  A
C727        C736   1.406       .  A
C727        C728   1.404       .  A
C728        C729   1.400       .  A
C728        H739   1.084       .  S
C729        C730   1.404       .  A
C729        H740   1.084       .  S
C730        C731   1.405       .  A
C731        C732   1.410       .  A
C731        H741   1.082       .  S
C732        C733   1.409       .  A
C733        H742   1.082       .  S
C734        C735   1.410       .  A
C734        H743   1.082       .  S
C735        C736   1.411       .  A
C736        H744   1.082       .  S
C745        C746   1.400       .  A
C745        C750   1.404       .  A
C745        H761   1.084       .  S
C746        C747   1.405       .  A
C746        H762   1.083       .  S
C747        C757   1.403       .  A
C747        C748   1.409       .  A
C748        C754   1.412       .  A
C748        C749   1.412       .  A
C749        C751   1.409       .  A
C749        C750   1.413       .  A
C750        C758   1.407       .  A
C751        C760   1.399       .  A
C751        C752   1.403       .  A
C752        C753   1.398       .  A
C752        H763   1.084       .  S
C753        C754   1.403       .  A
C753        H764   1.084       .  S
C754        C755   1.404       .  A
C755        C756   1.409       .  A
C755        H765   1.082       .  S
C756        C757   1.411       .  A
C757        H766   1.081       .  S
C758        C759   1.407       .  A
C758        H767   1.084       .  S
C759        C760   1.408       .  A
C760        H768   1.084       .  S
C769        C770   1.397       .  A
C769        C774   1.402       .  A
C769        H785   1.084       .  S
C770        C771   1.402       .  A
C770        H786   1.084       .  S
C771        C781   1.400       .  A
C771        C772   1.411       .  A
C772        C778   1.411       .  A
C772        C773   1.410       .  A
C773        C775   1.412       .  A
C773        C774   1.412       .  A
C774        C782   1.399       .  A
C775        C784   1.402       .  A
C775        C776   1.404       .  A
C776        C777   1.399       .  A
C776        H787   1.084       .  S
C777        C778   1.404       .  A
C777        H788   1.084       .  S
C778        C779   1.402       .  A
C779        C780   1.408       .  A
C779        H789   1.084       .  S
C780        C781   1.405       .  A
C781        H790   1.084       .  S
C782        C783   1.404       .  A
C782        H791   1.084       .  S
C783        C784   1.407       .  A
C784        H792   1.084       .  S
C793        C794   1.399       .  A
C793        C798   1.404       .  A
C793        H809   1.084       .  S
C794        C795   1.404       .  A
C794        H810   1.084       .  S
C795        C805   1.403       .  A
C795        C796   1.410   1_554  A
C796        C802   1.411       .  A
C796        C797   1.413       .  A
C797        C799   1.411       .  A
C797        C798   1.411   1_556  A
C798        C806   1.403       .  A
C799        C808   1.404       .  A
C799        C800   1.404       .  A
C800        C801   1.399       .  A
C800        H811   1.084       .  S
C801        C802   1.404       .  A
C801        H812   1.083       .  S
C802        C803   1.405       .  A
C803        C804   1.409       .  A
C803        H813   1.083       .  S
C804        C805   1.409   1_556  A
C805        H814   1.082       .  S
C806        C807   1.409   1_554  A
C806        H815   1.082       .  S
C807        C808   1.409       .  A
C808        H816   1.082       .  S
C817        C818   1.402       .  A
C817        C822   1.404       .  A
C817        H833   1.084       .  S
C818        C819   1.405       .  A
C818        H834   1.083       .  S
C819        C829   1.406       .  A
C819        C820   1.410       .  A
C820        C826   1.411       .  A
C820        C821   1.411       .  A
C821        C823   1.410       .  A
C821        C822   1.413       .  A
C822        C830   1.407       .  A
C823        C832   1.397       .  A
C823        C824   1.402       .  A
C824        C825   1.395       .  A
C824        H835   1.084       .  S
C825        C826   1.402       .  A
C825        H836   1.084       .  S
C826        C827   1.399       .  A
C827        C828   1.406       .  A
C827        H837   1.082       .  S
C828        C829   1.412       .  A
C829        H838   1.082       .  S
C830        C831   1.407       .  A
C830        H839   1.084       .  S
C831        C832   1.404       .  A
C832        H840   1.085       .  S
C841        C842   1.404       .  A
C841        C846   1.405       .  A
C841        H857   1.083       .  S
C842        C843   1.406       .  A
C842        H858   1.083       .  S
C843        C853   1.409       .  A
C843        C844   1.410       .  A
C844        C850   1.411       .  A
C844        C845   1.415       .  A
C845        C847   1.410       .  A
C845        C846   1.413       .  A
C846        C854   1.411       .  A
C847        C856   1.399       .  A
C847        C848   1.402       .  A
C848        C849   1.396       .  A
C848        H859   1.084       .  S
C849        C850   1.403       .  A
C849        H860   1.084       .  S
C850        C851   1.402       .  A
C851        C852   1.408       .  A
C851        H861   1.082       .  S
C852        C853   1.413       .  A
C853        H862   1.082       .  S
C854        C855   1.411       .  A
C854        H863   1.084       .  S
C855        C856   1.407       .  A
C856        H864   1.084       .  S
C865        C866   1.399       .  A
C865        C870   1.404       .  A
C865        H881   1.084       .  S
C866        C867   1.404       .  A
C866        H882   1.084       .  S
C867        C877   1.401       .  A
C867        C868   1.410       .  A
C868        C874   1.414       .  A
C868        C869   1.411       .  A
C869        C871   1.409       .  A
C869        C870   1.412       .  A
C870        C878   1.404       .  A
C871        C880   1.400       .  A
C871        C872   1.404       .  A
C872        C873   1.398       .  A
C872        H883   1.084       .  S
C873        C874   1.403       .  A
C873        H884   1.084       .  S
C874        C875   1.404       .  A
C875        C876   1.404       .  A
C875        H885   1.084       .  S
C876        C877   1.407       .  A
C877        H886   1.085       .  S
C878        C879   1.409       .  A
C878        H887   1.082       .  S
C879        C880   1.409       .  A
C880        H888   1.081       .  S
C889        C890   1.399       .  A
C889        C894   1.404       .  A
C889        H905   1.084       .  S
C890        C891   1.404       .  A
C890        H906   1.084       .  S
C891        C901   1.402       .  A
C891        C892   1.411       .  A
C892        C898   1.411       .  A
C892        C893   1.411       .  A
C893        C895   1.412       .  A
C893        C894   1.412       .  A
C894        C902   1.403       .  A
C895        C904   1.402       .  A
C895        C896   1.403       .  A
C896        C897   1.398       .  A
C896        H907   1.084       .  S
C897        C898   1.403       .  A
C897        H908   1.084       .  S
C898        C899   1.401       .  A
C899        C900   1.407       .  A
C899        H909   1.084       .  S
C900        C901   1.409       .  A
C901        H910   1.084       .  S
C902        C903   1.406       .  A
C902        H911   1.084       .  S
C903        C904   1.404       .  A
C904        H912   1.084       .  S
C913        C914   1.401   1_455  A
C913        C918   1.405       .  A
C913        H929   1.083       .  S
C914        C915   1.405       .  A
C914        H930   1.084       .  S
C915        C925   1.406       .  A
C915        C916   1.410       .  A
C916        C922   1.411       .  A
C916        C917   1.413   1_655  A
C917        C919   1.409       .  A
C917        C918   1.411       .  A
C918        C926   1.407       .  A
C919        C928   1.400       .  A
C919        C920   1.403       .  A
C920        C921   1.397   1_455  A
C920        H931   1.084       .  S
C921        C922   1.402       .  A
C921        H932   1.084       .  S
C922        C923   1.402       .  A
C923        C924   1.407       .  A
C923        H933   1.082       .  S
C924        C925   1.412       .  A
C925        H934   1.082       .  S
C926        C927   1.411       .  A
C926        H935   1.082       .  S
C927        C928   1.408       .  A
C928        H936   1.081       .  S
C937        C938   1.401       .  A
C937        C942   1.404       .  A
C937        H953   1.083       .  S
C938        C939   1.405       .  A
C938        H954   1.084       .  S
C939        C949   1.405       .  A
C939        C940   1.410       .  A
C940        C946   1.412       .  A
C940        C941   1.413       .  A
C941        C943   1.409       .  A
C941        C942   1.412       .  A
C942        C950   1.407       .  A
C943        C952   1.399       .  A
C943        C944   1.403       .  A
C944        C945   1.397       .  A
C944        H955   1.084       .  S
C945        C946   1.402       .  A
C945        H956   1.084       .  S
C946        C947   1.402       .  A
C947        C948   1.405       .  A
C947        H957   1.084       .  S
C948        C949   1.411       .  A
C949        H958   1.084       .  S
C950        C951   1.409       .  A
C950        H959   1.084       .  S
C951        C952   1.409       .  A
C952        H960   1.084       .  S
C961        C962   1.398       .  A
C961        C966   1.404       .  A
C961        H977   1.084       .  S
C962        C963   1.403       .  A
C962        H978   1.084       .  S
C963        C973   1.402       .  A
C963        C964   1.413       .  A
C964        C970   1.411       .  A
C964        C965   1.409       .  A
C965        C967   1.411       .  A
C965        C966   1.410       .  A
C966        C974   1.401       .  A
C967        C976   1.400       .  A
C967        C968   1.403       .  A
C968        C969   1.397       .  A
C968        H979   1.084       .  S
C969        C970   1.403       .  A
C969        H980   1.084       .  S
C970        C971   1.399       .  A
C971        C972   1.405       .  A
C971        H981   1.085       .  S
C972        C973   1.403       .  A
C973        H982   1.084       .  S
C974        C975   1.409       .  A
C974        H983   1.082       .  S
C975        C976   1.407       .  A
C976        H984   1.082       .  S
C985        C986   1.400       .  A
C985        C990   1.404       .  A
C985       H1001   1.084       .  S
C986        C987   1.404       .  A
C986       H1002   1.083       .  S
C987        C997   1.404       .  A
C987        C988   1.412       .  A
C988        C994   1.412       .  A
C988        C989   1.410       .  A
C989        C991   1.411       .  A
C989        C990   1.412       .  A
C990        C998   1.404       .  A
C991       C1000   1.398       .  A
C991        C992   1.403       .  A
C992        C993   1.396       .  A
C992       H1003   1.084       .  S
C993        C994   1.402       .  A
C993       H1004   1.084       .  S
C994        C995   1.399       .  A
C995        C996   1.404   1_545  A
C995       H1005   1.085   1_545  S
C996        C997   1.406   1_565  A
C997       H1006   1.084   1_545  S
C998        C999   1.407       .  A
C998       H1007   1.084       .  S
C999       C1000   1.406       .  A
C1000      H1008   1.084       .  S
C1009      C1010   1.397       .  A
C1009      C1014   1.402       .  A
C1009      H1025   1.084       .  S
C1010      C1011   1.403       .  A
C1010      H1026   1.084       .  S
C1011      C1021   1.400       .  A
C1011      C1012   1.411       .  A
C1012      C1018   1.411       .  A
C1012      C1013   1.411       .  A
C1013      C1015   1.411       .  A
C1013      C1014   1.411       .  A
C1014      C1022   1.400       .  A
C1015      C1024   1.404       .  A
C1015      C1016   1.404       .  A
C1016      C1017   1.400       .  A
C1016      H1027   1.084       .  S
C1017      C1018   1.404       .  A
C1017      H1028   1.084       .  S
C1018      C1019   1.404       .  A
C1019      C1020   1.409       .  A
C1019      H1029   1.084       .  S
C1020      C1021   1.407       .  A
C1021      H1030   1.084       .  S
C1022      C1023   1.406       .  A
C1022      H1031   1.084       .  S
C1023      C1024   1.410       .  A
C1024      H1032   1.084       .  S
C1033      C1034   1.398       .  A
C1033      C1038   1.403       .  A
C1033      H1049   1.084       .  S
C1034      C1035   1.403       .  A
C1034      H1050   1.084       .  S
C1035      C1045   1.401       .  A
C1035      C1036   1.409       .  A
C1036      C1042   1.413       .  A
C1036      C1037   1.414       .  A
C1037      C1039   1.409       .  A
C1037      C1038   1.412       .  A
C1038      C1046   1.404       .  A
C1039      C1048   1.405       .  A
C1039      C1040   1.405       .  A
C1040      C1041   1.401       .  A
C1040      H1051   1.084       .  S
C1041      C1042   1.404       .  A
C1041      H1052   1.084       .  S
C1042      C1043   1.408       .  A
C1043      C1044   1.409       .  A
C1043      H1053   1.084       .  S
C1044      C1045   1.409       .  A
C1045      H1054   1.084       .  S
C1046      C1047   1.408       .  A
C1046      H1055   1.084       .  S
C1047      C1048   1.413       .  A
C1048      H1056   1.083       .  S
C1057      C1058   1.398       .  A
C1057      C1062   1.404       .  A
C1057      H1073   1.084       .  S
C1058      C1059   1.403       .  A
C1058      H1074   1.084       .  S
C1059      C1069   1.402       .  A
C1059      C1060   1.413       .  A
C1060      C1066   1.411       .  A
C1060      C1061   1.411       .  A
C1061      C1063   1.411       .  A
C1061      C1062   1.410       .  A
C1062      C1070   1.401       .  A
C1063      C1072   1.403       .  A
C1063      C1064   1.403       .  A
C1064      C1065   1.398       .  A
C1064      H1075   1.084       .  S
C1065      C1066   1.403       .  A
C1065      H1076   1.084       .  S
C1066      C1067   1.401       .  A
C1067      C1068   1.406       .  A
C1067      H1077   1.085       .  S
C1068      C1069   1.403       .  A
C1069      H1078   1.084       .  S
C1070      C1071   1.408       .  A
C1070      H1079   1.082       .  S
C1071      C1072   1.407       .  A
C1072      H1080   1.083       .  S
C1081      C1082   1.398       .  A
C1081      C1086   1.403       .  A
C1081      H1097   1.084       .  S
C1082      C1083   1.403       .  A
C1082      H1098   1.084       .  S
C1083      C1093   1.401       .  A
C1083      C1084   1.411       .  A
C1084      C1090   1.412       .  A
C1084      C1085   1.410       .  A
C1085      C1087   1.411       .  A
C1085      C1086   1.411       .  A
C1086      C1094   1.401       .  A
C1087      C1096   1.401       .  A
C1087      C1088   1.403       .  A
C1088      C1089   1.398       .  A
C1088      H1099   1.084       .  S
C1089      C1090   1.403       .  A
C1089      H1100   1.084       .  S
C1090      C1091   1.401       .  A
C1091      C1092   1.405   1_545  A
C1091      H1101   1.084       .  S
C1092      C1093   1.406   1_565  A
C1093      H1102   1.084   1_545  S
C1094      C1095   1.408       .  A
C1094      H1103   1.084       .  S
C1095      C1096   1.408       .  A
C1096      H1104   1.084       .  S
C1105      C1106   1.398       .  A
C1105      C1110   1.403       .  A
C1105      H1121   1.084       .  S
C1106      C1107   1.403       .  A
C1106      H1122   1.084       .  S
C1107      C1117   1.400       .  A
C1107      C1108   1.410       .  A
C1108      C1114   1.413       .  A
C1108      C1109   1.412       .  A
C1109      C1111   1.410       .  A
C1109      C1110   1.412       .  A
C1110      C1118   1.403       .  A
C1111      C1120   1.403       .  A
C1111      C1112   1.404       .  A
C1112      C1113   1.400       .  A
C1112      H1123   1.084       .  S
C1113      C1114   1.404       .  A
C1113      H1124   1.084       .  S
C1114      C1115   1.405       .  A
C1115      C1116   1.406       .  A
C1115      H1125   1.084       .  S
C1116      C1117   1.406       .  A
C1117      H1126   1.084       .  S
C1118      C1119   1.406       .  A
C1118      H1127   1.084       .  S
C1119      C1120   1.409       .  A
C1120      H1128   1.084       .  S
C1129      C1130   1.398   1_655  A
C1129      C1134   1.403       .  A
C1129      H1145   1.084       .  S
C1130      C1131   1.403       .  A
C1130      H1146   1.084       .  S
C1131      C1141   1.402       .  A
C1131      C1132   1.410   1_554  A
C1132      C1138   1.411       .  A
C1132      C1133   1.413   1_455  A
C1133      C1135   1.410       .  A
C1133      C1134   1.410   1_556  A
C1134      C1142   1.402       .  A
C1135      C1144   1.405       .  A
C1135      C1136   1.404       .  A
C1136      C1137   1.400   1_655  A
C1136      H1147   1.084       .  S
C1137      C1138   1.404       .  A
C1137      H1148   1.084       .  S
C1138      C1139   1.404       .  A
C1139      C1140   1.409       .  A
C1139      H1149   1.082       .  S
C1140      C1141   1.408   1_556  A
C1141      H1150   1.082       .  S
C1142      C1143   1.409   1_554  A
C1142      H1151   1.081       .  S
C1143      C1144   1.410       .  A
C1144      H1152   1.082       .  S
C1153      C1154   1.399       .  A
C1153      C1158   1.404       .  A
C1153      H1169   1.084       .  S
C1154      C1155   1.404       .  A
C1154      H1170   1.084       .  S
C1155      C1165   1.404       .  A
C1155      C1156   1.411       .  A
C1156      C1162   1.410       .  A
C1156      C1157   1.413       .  A
C1157      C1159   1.413       .  A
C1157      C1158   1.410       .  A
C1158      C1166   1.402       .  A
C1159      C1168   1.405       .  A
C1159      C1160   1.403       .  A
C1160      C1161   1.399       .  A
C1160      H1171   1.084       .  S
C1161      C1162   1.404       .  A
C1161      H1172   1.084       .  S
C1162      C1163   1.403       .  A
C1163      C1164   1.410       .  A
C1163      H1173   1.082       .  S
C1164      C1165   1.409       .  A
C1165      H1174   1.082       .  S
C1166      C1167   1.409       .  A
C1166      H1175   1.084       .  S
C1167      C1168   1.406       .  A
C1168      H1176   1.084       .  S
C1177      C1178   1.399       .  A
C1177      C1182   1.403       .  A
C1177      H1193   1.084       .  S
C1178      C1179   1.404       .  A
C1178      H1194   1.084       .  S
C1179      C1189   1.404       .  A
C1179      C1180   1.411       .  A
C1180      C1186   1.410       .  A
C1180      C1181   1.413       .  A
C1181      C1183   1.413       .  A
C1181      C1182   1.411       .  A
C1182      C1190   1.402       .  A
C1183      C1192   1.406       .  A
C1183      C1184   1.403       .  A
C1184      C1185   1.400       .  A
C1184      H1195   1.084       .  S
C1185      C1186   1.404       .  A
C1185      H1196   1.083       .  S
C1186      C1187   1.404       .  A
C1187      C1188   1.410       .  A
C1187      H1197   1.082       .  S
C1188      C1189   1.409       .  A
C1189      H1198   1.082       .  S
C1190      C1191   1.406       .  A
C1190      H1199   1.085       .  S
C1191      C1192   1.406       .  A
C1192      H1200   1.084       .  S
