geometry optimzed in LAMMPS
_audit_creation_date              2020-11-30 
_audit_creation_method            'lammps2cif' 
_symmetry_space_group_name_H-M    'P1' 
_symmetry_Int_Tables_number       1 
_symmetry_cell_setting            triclinic 
loop_ 
_symmetry_equiv_pos_as_xyz 
  x,y,z 
_cell_length_a                    42.17099196 
_cell_length_b                    42.14596674891595 
_cell_length_c                    85.89995497604342 
_cell_angle_alpha                 90.06837525764236 
_cell_angle_beta                  90.08452887865707 
_cell_angle_gamma                 119.77613461119341 
loop_ 
_atom_site_label 
_atom_site_type_symbol 
_atom_site_fract_x 
_atom_site_fract_y 
_atom_site_fract_z 
_atom_site_charge 
O1          O  0.10128185  0.31193404  0.32467873    -0.87800
C2          C  0.18856754  0.37512147  0.29732349     0.88300
Mg3        Mg  0.09113700  0.33064530  0.34623290     1.58100
O4          O  0.19359299  0.30581878  0.31792383    -0.87500
O5          O  0.10715748  0.26672799  0.31548613    -0.74800
C6          C  0.24880818  0.40566734  0.38445431     0.93300
O7          O  0.14141432  0.39859825  0.32009039    -0.74600
O8          O  0.22099410  0.40959551  0.38267463    -0.82200
Mg9        Mg  0.11158933  0.34679149  0.30495387     1.58000
C10         C  0.28997710  0.32983161  0.34141654     0.93200
O11         O  0.08045715  0.29880215  0.28844026    -0.80400
H12         H  0.17344959  0.25319298  0.32342074    -0.05800
C13         C  0.24662016  0.40744563  0.33837607     0.88200
O14         O  0.11650010  0.30209058  0.35995488    -0.74900
O15         O  0.16146699  0.34580111  0.30095473    -0.87700
O16         O  0.27746584  0.33030626  0.32794263    -0.80500
C17         C  0.23680792  0.32076456  0.28079311     0.93300
C18         C  0.08492081  0.27840729  0.27881393     0.93200
Mg19       Mg  0.22507631  0.33910422  0.35739063     1.58000
O20         O  0.25551839  0.38565261  0.37539038    -0.80400
O21         O  0.19523617  0.28795552  0.34174711    -0.74700
O22         O  0.20240251  0.30885599  0.28046773    -0.80500
O23         O  0.05839993  0.34794717  0.30868086    -0.82200
O24         O  0.13386426  0.37731130  0.38124825    -0.80500
C25         C  0.18713630  0.28125506  0.32739380     0.87600
O26         O  0.17530880  0.34052124  0.36097078    -0.87700
O27         O  0.23642310  0.37447773  0.33760949    -0.87800
O28         O  0.22922593  0.41934813  0.34623808    -0.74800
Mg29       Mg  0.15586080  0.29199623  0.29863251     1.58000
O30         O  0.25614009  0.33597356  0.29280538    -0.82200
H31         H  0.06689803  0.25989668  0.33035916    -0.05900
O32         O  0.14278460  0.38029306  0.34385221    -0.87500
H33         H  0.16258278  0.43298967  0.33856099    -0.05800
H34         H  0.15233643  0.29230508  0.37185504    -0.05900
C35         C  0.14914297  0.40501767  0.33447772     0.87600
C36         C  0.09052787  0.27887484  0.32372409     0.88200
C37         C  0.14840732  0.31122728  0.36474234     0.88200
H38         H  0.27033107  0.42653695  0.33181139    -0.05900
O39         O  0.22041675  0.38396156  0.30214149    -0.74900
Mg40       Mg  0.18028453  0.39410138  0.36294833     1.58000
H41         H  0.18488588  0.39430443  0.29028509    -0.05900
C42         C  0.04588992  0.35461909  0.32097425     0.93200
O43         O  0.07996682  0.34898206  0.36914345    -0.82200
C44         C  0.09930663  0.36443643  0.38109684     0.93300
O45         O  0.11388103  0.27592168  0.27863505    -0.82200
Mg46       Mg  0.24568180  0.35511732  0.31584130     1.58200
O47         O  0.05895346  0.35498270  0.33438649    -0.80500
O48         O  0.27770911  0.33685171  0.35371927    -0.82200
C49         C  0.30005221  0.12702373  0.19698413    -0.10300
C50         C  0.29111098  0.15254006  0.20296380    -0.04100
C51         C  0.29552937  0.18253065  0.19420084    -0.10300
C52         C  0.30918793  0.18706403  0.17880140     0.10700
C53         C  0.31832649  0.16138467  0.17252927    -0.02100
C54         C  0.31368206  0.13127672  0.18163032     0.10500
C55         C  0.32236635  0.10592437  0.17505916    -0.12100
C56         C  0.33651586  0.11060955  0.16008873    -0.12100
C57         C  0.34205608  0.14052335  0.15096929     0.10500
C58         C  0.33263088  0.16607610  0.15717978    -0.02100
C59         C  0.31502257  0.21715725  0.16966120    -0.12200
C60         C  0.32928711  0.22191124  0.15467922    -0.12200
C61         C  0.33817719  0.19670132  0.14819182     0.10700
C62         C  0.35335153  0.20169002  0.13311213    -0.10300
C63         C  0.36184518  0.17588978  0.12718170    -0.04100
C64         C  0.35742771  0.14604519  0.13591437    -0.10300
H65         H  0.31832074  0.08204350  0.18138912     0.07900
H66         H  0.34327613  0.09056318  0.15578920     0.07900
H67         H  0.30920279  0.23776716  0.17407224     0.08100
H68         H  0.33365997  0.24587194  0.14830532     0.08100
H69         H  0.28069703  0.14909642  0.21473604     0.04600
H70         H  0.37182022  0.17887576  0.11534025     0.04600
C71         C  0.82807048  0.10714090  0.19136721    -0.10300
C72         C  0.86414703  0.12714647  0.19679910    -0.04100
C73         C  0.88927171  0.16156056  0.19092057    -0.10300
C74         C  0.87906549  0.17538564  0.17798380     0.10700
C75         C  0.84354077  0.15440126  0.17137275    -0.02100
C76         C  0.81789996  0.12022339  0.17809150     0.10500
C77         C  0.78283613  0.10048910  0.17142369    -0.12100
C78         C  0.77336671  0.11330365  0.15822457    -0.12100
C79         C  0.79823225  0.14680650  0.15134843     0.10500
C80         C  0.83341418  0.16800063  0.15817987    -0.02100
C81         C  0.90318976  0.20976211  0.17158562    -0.12200
C82         C  0.89309709  0.22321473  0.15883792    -0.12200
C83         C  0.85838446  0.20295275  0.15195196     0.10700
C84         C  0.84812873  0.21653425  0.13890718    -0.10300
C85         C  0.81342100  0.19493286  0.13228296    -0.04100
C86         C  0.78859143  0.16034226  0.13810751    -0.10300
H87         H  0.76226720  0.07478913  0.17626606     0.07900
H88         H  0.74608145  0.09685147  0.15355320     0.07900
H89         H  0.93019385  0.22682202  0.17639357     0.08100
H90         H  0.91306205  0.24968007  0.15436491     0.08100
H91         H  0.87312339  0.11558738  0.20588615     0.04600
H92         H  0.80527474  0.20547999  0.12247666     0.04600
O93         O  0.23108462  0.87001941  0.33293661    -0.87800
C94         C  0.15247406  0.84332399  0.36599620     0.88300
Mg95       Mg  0.23057133  0.89648986  0.31158754     1.58100
O96         O  0.14345684  0.76879917  0.34400121    -0.87500
O97         O  0.22944957  0.81966656  0.34053089    -0.74800
C98         C  0.06137917  0.80297438  0.28420582     0.93300
O99         O  0.18838367  0.91285490  0.34197768    -0.74600
O100        O  0.08781370  0.83556743  0.28512964    -0.82200
Mg101      Mg  0.22514897  0.89441472  0.35408375     1.58000
C102        C  0.04075171  0.69297739  0.32655250     0.93200
O103        O  0.26369016  0.88261925  0.36906502    -0.80400
H104        H  0.16365457  0.73755798  0.33643344    -0.05800
C105        C  0.07970434  0.81121082  0.32994588     0.88200
O106        O  0.20298299  0.84170812  0.29844651    -0.74900
O107        O  0.17865169  0.84257703  0.35992173    -0.87700
O108        O  0.05696309  0.70621278  0.33948316    -0.80500
C109        C  0.11586883  0.74490036  0.38372379     0.93300
C110        C  0.26162555  0.85754943  0.37803857     0.93200
Mg111      Mg  0.09817899  0.76592481  0.30788672     1.58000
O112        O  0.05951662  0.77741865  0.29279302    -0.80400
O113        O  0.13499319  0.74778190  0.32014893    -0.74700
O114        O  0.14903964  0.76902498  0.38121517    -0.80500
O115        O  0.27406672  0.94923588  0.34772693    -0.82200
O116        O  0.17248886  0.89123004  0.28118269    -0.80500
C117        C  0.14773344  0.75057719  0.33379920     0.87600
O118        O  0.14415091  0.81775222  0.30216089    -0.87700
O119        O  0.09158860  0.78973996  0.32909642    -0.87800
O120        O  0.09294957  0.84009681  0.32181583    -0.74800
Mg121      Mg  0.18750359  0.79634648  0.36036688     1.58000
O122        O  0.09111001  0.73584354  0.37340144    -0.82200
H123        H  0.26382660  0.85313608  0.32387362    -0.05900
O124        O  0.17886176  0.89072939  0.31832981    -0.87500
H125        H  0.15927440  0.92261327  0.32574317    -0.05800
H126        H  0.16491509  0.79418694  0.28849416    -0.05900
C127        C  0.17509467  0.90950402  0.32841163     0.87600
C128        C  0.24265761  0.84826158  0.33218459     0.88200
C129        C  0.17017076  0.81703417  0.29591551     0.88200
H130        H  0.05834279  0.80590175  0.33822017    -0.05900
O131        O  0.11971146  0.81844308  0.36348549    -0.74900
Mg132      Mg  0.13483133  0.86369636  0.30206458     1.58000
H133        H  0.15754350  0.86629325  0.37329746    -0.05900
C134        C  0.28164392  0.96744815  0.33512442     0.93200
O135        O  0.23041080  0.92423544  0.28895531    -0.82200
C136        C  0.20549392  0.91572110  0.27877168     0.93300
O137        O  0.23477655  0.82504256  0.37748626    -0.82200
Mg138      Mg  0.09164234  0.76336345  0.35049906     1.58200
O139        O  0.26431253  0.95366443  0.32249892    -0.80500
O140        O  0.04990894  0.71134681  0.31401666    -0.82200
O141        O  0.63319498  0.76786285  0.34248748    -0.87800
C142        C  0.70226526  0.85907304  0.36660767     0.88300
Mg143      Mg  0.64803545  0.75375010  0.32073916     1.58100
O144        O  0.63096934  0.86238112  0.34673697    -0.87500
O145        O  0.59019831  0.77674832  0.35196703    -0.74800
C146        C  0.72144794  0.90572509  0.27813585     0.93300
O147        O  0.72016999  0.80738133  0.34461346    -0.74600
O148        O  0.72559396  0.87807260  0.28024216    -0.82200
Mg149      Mg  0.67135975  0.78132759  0.36145758     1.58000
C150        C  0.65332590  0.95417110  0.32115910     0.93200
O151        O  0.62704554  0.75421457  0.38043654    -0.80400
H152        H  0.57770091  0.84221460  0.34259560    -0.05800
C153        C  0.72893375  0.90981648  0.32365276     0.88200
O154        O  0.61852590  0.77770715  0.30683392    -0.74900
O155        O  0.67195688  0.83206719  0.36413449    -0.87700
O156        O  0.65617204  0.94380959  0.33475146    -0.80500
C157        C  0.65390601  0.91291882  0.38249914     0.93300
C158        C  0.60880874  0.76248588  0.38982986     0.93200
Mg159      Mg  0.65779967  0.88606102  0.30621664     1.58000
O160        O  0.70159222  0.91285791  0.28706042    -0.80400
O161        O  0.60928441  0.85976737  0.32323266    -0.74700
O162        O  0.64025857  0.87836943  0.38375048    -0.80500
O163        O  0.67150531  0.72787727  0.35880177    -0.82200
O164        O  0.68999237  0.79006370  0.28416647    -0.80500
C165        C  0.60499703  0.85464120  0.33784700     0.87600
O166        O  0.65794109  0.83576138  0.30358263    -0.87700
O167        O  0.69616794  0.89973155  0.32514190    -0.87800
O168        O  0.73959388  0.89096301  0.31611764    -0.74800
Mg169      Mg  0.61930839  0.82853420  0.36702258     1.58000
O170        O  0.66766929  0.92970415  0.36985367    -0.82200
H171        H  0.58024962  0.73322014  0.33845518    -0.05900
O172        O  0.69862808  0.80504005  0.32111750    -0.87500
H173        H  0.75181477  0.82468249  0.32526397    -0.05800
H174        H  0.60819601  0.81187388  0.29396303    -0.05900
C175        C  0.72452494  0.81249112  0.33000563     0.87600
C176        C  0.60050819  0.75795503  0.34414845     0.88200
C177        C  0.62778619  0.80870232  0.30094876     0.88200
H178        H  0.74894570  0.93465081  0.32936701    -0.05900
O179        O  0.71150822  0.89002351  0.36067045    -0.74900
Mg180      Mg  0.71083533  0.83949140  0.30098245     1.58000
H181        H  0.72197747  0.85588452  0.37349507    -0.05900
C182        C  0.67474627  0.71225422  0.34672917     0.93200
O183        O  0.66262053  0.73823275  0.29778067    -0.82200
C184        C  0.67656791  0.75551186  0.28523799     0.93300
O185        O  0.60590021  0.79093299  0.38798879    -0.82200
Mg186      Mg  0.68150142  0.91364808  0.34689826     1.58200
O187        O  0.67231530  0.72240507  0.33302349    -0.80500
O188        O  0.65712235  0.93937496  0.30892274    -0.82200
C189        C  0.85615177  0.68072283  0.19880066    -0.10300
C190        C  0.83078710  0.68927458  0.20528087    -0.04100
C191        C  0.79916190  0.68280861  0.19733964    -0.10300
C192        C  0.79234583  0.66700774  0.18231766     0.10700
C193        C  0.81728749  0.65743066  0.17558496    -0.02100
C194        C  0.84914073  0.66398008  0.18389601     0.10500
C195        C  0.87344924  0.65450817  0.17687814    -0.12100
C196        C  0.86657701  0.63868249  0.16206254    -0.12100
C197        C  0.83522310  0.63186888  0.15360372     0.10500
C198        C  0.81046703  0.64160630  0.16042849    -0.02100
C199        C  0.76078392  0.65979424  0.17398924    -0.12200
C200        C  0.75434101  0.64473827  0.15915748    -0.12200
C201        C  0.77905607  0.63600802  0.15205949     0.10700
C202        C  0.77266568  0.62114845  0.13690701    -0.10300
C203        C  0.79686235  0.61114090  0.13044641    -0.04100
C204        C  0.82828456  0.61651857  0.13837070    -0.10300
H205        H  0.89827494  0.65954385  0.18271393     0.07900
H206        H  0.88646787  0.63236719  0.15722320     0.07900
H207        H  0.74049657  0.66549471  0.17885953     0.08100
H208        H  0.72939080  0.63960098  0.15340155     0.08100
H209        H  0.83598295  0.70165722  0.21674855     0.04600
H210        H  0.79128636  0.59935048  0.11886422     0.04600
O211        O  0.45900803  0.02308784  0.00848626    -0.87800
C212        C  0.49188060  0.96497702  0.03564268     0.88300
Mg213      Mg  0.42705817  0.00049409  0.98763597     1.58100
O214        O  0.56212661  0.03344261  0.01299818    -0.87500
O215        O  0.51147188  0.06946071  0.01571982    -0.74800
C216        C  0.51155982  0.92908073  0.94827585     0.93300
O217        O  0.41707345  0.93652584  0.01466492    -0.74600
O218        O  0.47960749  0.92360611  0.95094849    -0.82200
Mg219      Mg  0.43935462  0.98944535  0.02903783     1.58000
C220        C  0.63093394  0.00678247  0.98778064     0.93200
O221        O  0.45595738  0.03725533  0.04593338    -0.80400
H222        H  0.59241782  0.08586306  0.00684550    -0.05800
C223        C  0.51366063  0.93022283  0.99455473     0.88200
O224        O  0.47843974  0.02953225  0.97239433    -0.74900
O225        O  0.49201728  0.99306617  0.03144548    -0.87700
O226        O  0.62117286  0.00721270  0.00182386    -0.80500
C227        C  0.59597668  0.02325751  0.04984649     0.93300
C228        C  0.48278543  0.05851931  0.05459197     0.93200
Mg229      Mg  0.55489618  0.99776165  0.97413241     1.58000
O230        O  0.53890384  0.95058674  0.95664331    -0.80400
O231        O  0.57715648  0.05016458  0.98878092    -0.74700
O232        O  0.57254886  0.03413298  0.05015001    -0.80500
O233        O  0.38362078  0.98574575  0.02666301    -0.82200
O234        O  0.42506344  0.95451594  0.95355460    -0.80500
C235        C  0.57815138  0.05758355  0.00316289     0.87600
O236        O  0.50254485  0.99401047  0.97208050    -0.87700
O237        O  0.53540902  0.96344603  0.99460304    -0.87800
O238        O  0.48319652  0.91670469  0.98751596    -0.74800
Mg239      Mg  0.53912321  0.04760286  0.03231896     1.58000
O240        O  0.59987502  0.00741559  0.03795790    -0.82200
H241        H  0.47521312  0.07428344  0.00176683    -0.05900
O242        O  0.43332407  0.95324919  0.99055219    -0.87500
H243        H  0.40271111  0.90079326  0.99663138    -0.05800
H244        H  0.52344394  0.04037155  0.95983951    -0.05900
C245        C  0.41684719  0.92906687  0.00032350     0.87600
C246        C  0.48123061  0.05621454  0.00847441     0.88200
C247        C  0.50227086  0.02175074  0.96763672     0.88200
H248        H  0.52022829  0.91234558  0.00110484    -0.05900
O249        O  0.51535879  0.95690515  0.03069753    -0.74900
Mg250      Mg  0.45613576  0.93941897  0.97122980     1.58000
H251        H  0.47057753  0.94625585  0.04336690    -0.05900
C252        C  0.36253705  0.97749665  0.01489532     0.93200
O253        O  0.39351839  0.97697630  0.96546702    -0.82200
C254        C  0.40008700  0.96310418  0.95357950     0.93300
O255        O  0.51485560  0.06359048  0.05249135    -0.82200
Mg256      Mg  0.56699402  0.98505868  0.01556942     1.58200
O257        O  0.37306920  0.97578165  0.00119056    -0.80500
O258        O  0.60991965  0.00157285  0.97627815    -0.82200
O259        O  0.54218480  0.55777361  0.99177748    -0.87800
C260        C  0.51922587  0.47455597  0.96165686     0.88300
Mg261      Mg  0.56575815  0.56063232  0.01429689     1.58100
O262        O  0.44300205  0.47135189  0.97971366    -0.87500
O263        O  0.49480691  0.55715840  0.98102934    -0.74800
C264        C  0.46597899  0.39701675  0.04491004     0.93300
O265        O  0.58476697  0.51310844  0.98701416    -0.74600
O266        O  0.49862712  0.42321673  0.04434715    -0.82200
Mg267      Mg  0.56892519  0.54884798  0.97241110     1.58000
C268        C  0.36228557  0.37445609  0.99835316     0.93200
O269        O  0.55873385  0.58585311  0.95621379    -0.80400
H270        H  0.41237874  0.49418946  0.98446413    -0.05800
C271        C  0.47996124  0.40775087  0.99968107     0.88200
O272        O  0.50944691  0.53661165  0.02582322    -0.74900
O273        O  0.51791595  0.50199054  0.96579974    -0.87700
O274        O  0.37877086  0.38826110  0.98561854    -0.80500
C275        C  0.42245902  0.43545103  0.94095765     0.93300
C276        C  0.53646598  0.58376302  0.94569929     0.93200
Mg277      Mg  0.43315518  0.43134318  0.01794476     1.58000
O278        O  0.44144244  0.39418630  0.03538380    -0.80400
O279        O  0.41879320  0.46730471  0.00269735    -0.74700
O280        O  0.44541331  0.46957895  0.94218604    -0.80500
O281        O  0.62322828  0.59848267  0.97918288    -0.82200
O282        O  0.55289233  0.50711143  0.04685296    -0.80500
C283        C  0.42402130  0.47798238  0.98863093     0.87600
O284        O  0.48456904  0.47720018  0.02380294    -0.87700
O285        O  0.45963105  0.42095896  0.99879668    -0.87800
O286        O  0.50806481  0.42177409  0.00832412    -0.74800
Mg287      Mg  0.47269873  0.51185643  0.96230060     1.58000
O288        O  0.41450307  0.41365002  0.95233421    -0.82200
H289        H  0.52581905  0.59317373  0.99786843    -0.05900
O290        O  0.55934611  0.50771304  0.00977987    -0.87500
H291        H  0.59113879  0.48606833  0.00521042    -0.05800
H292        H  0.46017577  0.50079357  0.03504837    -0.05900
C293        C  0.57912320  0.50190471  0.00100146     0.87600
C294        C  0.52151516  0.57053943  0.99050937     0.88200
C295        C  0.48381191  0.50444044  0.02865071     0.88200
H296        H  0.47452408  0.38462992  0.99240651    -0.05900
O297        O  0.49408906  0.44248124  0.96502801    -0.74900
Mg298      Mg  0.52934571  0.46685805  0.02674628     1.58000
H299        H  0.54305475  0.47801368  0.95548052    -0.05900
C300        C  0.63989003  0.60646290  0.99220785     0.93200
O301        O  0.58988745  0.56359563  0.03834210    -0.82200
C302        C  0.57769208  0.53995031  0.04918832     0.93300
O303        O  0.50457174  0.55612215  0.94429553    -0.82200
Mg304      Mg  0.43743027  0.41820071  0.97626395     1.58200
O305        O  0.62426970  0.59045920  0.00478389    -0.80500
O306        O  0.37841642  0.38343559  0.01148157    -0.82200
O307        O  0.04549822  0.46487957  0.00055675    -0.87800
C308        C  0.98353611  0.47860394  0.96800607     0.88300
Mg309      Mg  0.02484830  0.44340800  0.02348526     1.58100
O310        O  0.05375885  0.55938352  0.98504535    -0.87500
O311        O  0.09116176  0.51028378  0.98857655    -0.74800
C312        C  0.95232843  0.54226546  0.04942724     0.93300
O313        O  0.95939098  0.41792208  0.99585303    -0.74600
O314        O  0.94708469  0.50996926  0.05157563    -0.82200
Mg315      Mg  0.01146919  0.43325522  0.98152510     1.58000
C316        C  0.03034897  0.63877847  0.00098964     0.93200
O317        O  0.05929268  0.44248200  0.96544014    -0.80400
H318        H  0.10637534  0.59011766  0.99088814    -0.05800
C319        C  0.95178257  0.52027128  0.00489758     0.88200
O320        O  0.05409100  0.50048983  0.03430784    -0.74900
O321        O  0.01251071  0.48179840  0.97293377    -0.87700
O322        O  0.02749656  0.62112190  0.98852406    -0.80500
C323        C  0.03902663  0.57478033  0.94546351     0.93300
C324        C  0.07656679  0.46259495  0.95386386     0.93200
Mg325      Mg  0.02028946  0.57059253  0.02274720     1.58000
O326        O  0.97325375  0.56307853  0.03872360    -0.80400
O327        O  0.07131009  0.58372607  0.00832545    -0.74700
O328        O  0.04963709  0.55147043  0.94757579    -0.80500
O329        O  0.01082232  0.38167359  0.99037903    -0.82200
O330        O  0.97385554  0.44844152  0.05634510    -0.80500
C331        C  0.07819202  0.57850475  0.99444023     0.87600
O332        O  0.01608113  0.52108411  0.03144406    -0.87700
O333        O  0.98505176  0.54065513  0.00351962    -0.87800
O334        O  0.93861746  0.49509048  0.01503561    -0.74800
Mg335      Mg  0.06613246  0.52790404  0.96872718     1.58000
O336        O  0.02407549  0.58342787  0.95625856    -0.82200
H337        H  0.09744267  0.48340851  0.00689473    -0.05900
O338        O  0.97550176  0.44533924  0.01859546    -0.87500
H339        H  0.92327409  0.41183325  0.01280747    -0.05800
H340        H  0.06298590  0.54883612  0.04319426    -0.05900
C341        C  0.95162216  0.42443686  0.00937716     0.87600
C342        C  0.07866476  0.48576507  0.99904024     0.88200
C343        C  0.04470302  0.52431076  0.03681617     0.88200
H344        H  0.93346023  0.52344997  0.99706712    -0.05900
O345        O  0.97518944  0.50336997  0.97016107    -0.74900
Mg346      Mg  0.96135985  0.47559267  0.03493946     1.58000
H347        H  0.96434541  0.45365958  0.96211392    -0.05900
C348        C  0.00271903  0.36705586  0.00380575     0.93200
O349        O  0.00390591  0.42115001  0.04731880    -0.82200
C350        C  0.98624707  0.42637293  0.05801752     0.93300
O351        O  0.07915161  0.49373659  0.95165739    -0.82200
Mg352      Mg  0.00423392  0.56146292  0.98046935     1.58200
O353        O  0.99973700  0.38374635  0.01554771    -0.80500
O354        O  0.02606946  0.62432084  0.01435828    -0.82200
O355        O  0.31189403  0.09459803  0.67459006    -0.87800
C356        C  0.37712425  0.18457033  0.70065306     0.88300
Mg357      Mg  0.32588375  0.08427389  0.65193224     1.58100
O358        O  0.30222464  0.18480523  0.68256187    -0.87500
O359        O  0.26726479  0.09825857  0.68571495    -0.74800
C360        C  0.38789193  0.23963660  0.61281977     0.93300
O361        O  0.39922142  0.14032576  0.67554186    -0.74600
O362        O  0.39230489  0.21197329  0.61379915    -0.82200
Mg363      Mg  0.35226095  0.10916448  0.69277030     1.58000
C364        C  0.32139109  0.28031240  0.65941354     0.93200
O365        O  0.30987768  0.07727211  0.71172887    -0.80400
H366        H  0.24851877  0.16279931  0.67895719    -0.05800
C367        C  0.39936434  0.23958304  0.65860608     0.88200
O368        O  0.29253289  0.10683562  0.64003976    -0.74900
O369        O  0.34801117  0.15675222  0.69749663    -0.87700
O370        O  0.32421049  0.26876979  0.67276944    -0.80500
C371        C  0.32227653  0.22974596  0.71939298     0.93300
C372        C  0.29064906  0.08151431  0.72209038     0.93200
Mg373      Mg  0.32697618  0.21471801  0.64232972     1.58000
O374        O  0.36972425  0.24622260  0.62294331    -0.80400
O375        O  0.27928566  0.18439375  0.65956974    -0.74700
O376        O  0.31134787  0.19552785  0.71969910    -0.80500
O377        O  0.35850664  0.05926369  0.68810316    -0.82200
O378        O  0.36265395  0.12596791  0.61565097    -0.80500
C379        C  0.27566528  0.17703475  0.67403901     0.87600
O380        O  0.32905084  0.16585701  0.63794145    -0.87700
O381        O  0.36647435  0.22792926  0.66078776    -0.87800
O382        O  0.41049335  0.22299640  0.64977090    -0.74800
Mg383      Mg  0.29380761  0.14832372  0.70183734     1.58000
O384        O  0.33554441  0.24889509  0.70719482    -0.82200
H385        H  0.25950412  0.05733869  0.67098363    -0.05900
O386        O  0.37464189  0.13717521  0.65265193    -0.87500
H387        H  0.42863053  0.16072762  0.65577001    -0.05800
H388        H  0.27845504  0.14073152  0.62914077    -0.05900
C389        C  0.40179572  0.14618674  0.66096824     0.87600
C390        C  0.27893069  0.08208939  0.67692926     0.88200
C391        C  0.29946949  0.13810452  0.63524615     0.88200
H392        H  0.41913876  0.26396302  0.66466881    -0.05900
O393        O  0.38413628  0.21581221  0.69583856    -0.74900
Mg394      Mg  0.38261890  0.17296858  0.63359689     1.58000
H395        H  0.39773382  0.18202769  0.70714322    -0.05900
C396        C  0.36091149  0.04533548  0.67531721     0.93200
O397        O  0.33980503  0.07253535  0.62792209    -0.82200
C398        C  0.35161420  0.09176777  0.61566454     0.93300
O399        O  0.28472003  0.10843194  0.72189017    -0.82200
Mg400      Mg  0.35115420  0.23798481  0.68341272     1.58200
O401        O  0.35406442  0.05492497  0.66225856    -0.80500
O402        O  0.32438484  0.26608808  0.64685863    -0.82200
C403        C  0.23315554  0.38654548  0.85500382    -0.10300
C404        C  0.20970808  0.39717961  0.86161213    -0.04100
C405        C  0.17382587  0.38372826  0.85626858    -0.10300
C406        C  0.16217555  0.36131177  0.84269956     0.10700
C407        C  0.18562330  0.34984146  0.83588743    -0.02100
C408        C  0.22104300  0.36209939  0.84222562     0.10500
C409        C  0.24360153  0.35016274  0.83544862    -0.12100
C410        C  0.23127867  0.32549819  0.82311604    -0.12100
C411        C  0.19651750  0.31304045  0.81659134     0.10500
C412        C  0.17359444  0.32579524  0.82279297    -0.02100
C413        C  0.12784880  0.34970342  0.83582620    -0.12200
C414        C  0.11677148  0.32756948  0.82250503    -0.12200
C415        C  0.13882430  0.31464072  0.81591384     0.10700
C416        C  0.12744394  0.29095991  0.80268454    -0.10300
C417        C  0.14921726  0.27605623  0.79793422    -0.04100
C418        C  0.18366321  0.28744211  0.80425520    -0.10300
H419        H  0.27099631  0.35950334  0.83968825     0.07900
H420        H  0.24942530  0.31634917  0.81872488     0.07900
H421        H  0.10933101  0.35798649  0.84058503     0.08100
H422        H  0.09034171  0.32020950  0.81766482     0.08100
H423        H  0.21943575  0.41579456  0.87146473     0.04600
H424        H  0.13968490  0.25556917  0.78880916     0.04600
C425        C  0.12583825  0.80041170  0.87156400    -0.10300
C426        C  0.15649718  0.82462640  0.88033741    -0.04100
C427        C  0.18115322  0.85999718  0.87513097    -0.10300
C428        C  0.17527501  0.87178329  0.86052345     0.10700
C429        C  0.14395941  0.84810401  0.85158109    -0.02100
C430        C  0.11905170  0.81239960  0.85713679     0.10500
C431        C  0.08859809  0.78938289  0.84790516    -0.12100
C432        C  0.08231399  0.80118466  0.83367046    -0.12100
C433        C  0.10638671  0.83638921  0.82799608     0.10500
C434        C  0.13782655  0.86000723  0.83693261    -0.02100
C435        C  0.20043082  0.90626505  0.85442170    -0.12200
C436        C  0.19485116  0.91757540  0.83994630    -0.12200
C437        C  0.16366078  0.89510644  0.83105818     0.10700
C438        C  0.15794960  0.90623126  0.81625785    -0.10300
C439        C  0.12576322  0.88332013  0.80814570    -0.04100
C440        C  0.10051854  0.84833862  0.81342661    -0.10300
H441        H  0.06939029  0.76180221  0.85151181     0.07900
H442        H  0.05854845  0.78212552  0.82705852     0.07900
H443        H  0.22518772  0.92471044  0.86062280     0.08100
H444        H  0.21533273  0.94417365  0.83578349     0.08100
H445        H  0.16056005  0.81617299  0.89173200     0.04600
H446        H  0.12048678  0.89289334  0.79725752     0.04600
O447        O  0.89848355  0.20178380  0.66914119    -0.87800
C448        C  0.81973009  0.18165325  0.70136936     0.88300
Mg449      Mg  0.90124209  0.22782950  0.64701257     1.58100
O450        O  0.80774585  0.10385709  0.68098979    -0.87500
O451        O  0.89410012  0.15114686  0.67809028    -0.74800
C452        C  0.73123499  0.13619104  0.61859290     0.93300
O453        O  0.85780095  0.24709820  0.67596045    -0.74600
O454        O  0.75962612  0.16771833  0.61745614    -0.82200
Mg455      Mg  0.89254791  0.22823499  0.68968917     1.58000
C456        C  0.70488922  0.03040289  0.66363808     0.93200
O457        O  0.92866704  0.21551767  0.70606207    -0.80400
H458        H  0.82620396  0.07025056  0.67474725    -0.05800
C459        C  0.74912752  0.14991891  0.66352359     0.88200
O460        O  0.87220707  0.17208364  0.63452105    -0.74900
O461        O  0.84507389  0.17817311  0.69611117    -0.87700
O462        O  0.72041135  0.04531156  0.67645397    -0.80500
C463        C  0.77638911  0.08251253  0.72004769     0.93300
C464        C  0.92588110  0.19028944  0.71515927     0.93200
Mg465      Mg  0.76572957  0.10023431  0.64398907     1.58000
O466        O  0.72880945  0.11301702  0.62870305    -0.80400
O467        O  0.80014329  0.08103913  0.65745728    -0.74700
O468        O  0.81086804  0.10308055  0.71838120    -0.80500
O469        O  0.94282428  0.28128115  0.68314406    -0.82200
O470        O  0.84694992  0.22185942  0.61477599    -0.80500
C471        C  0.81157082  0.08417444  0.67136953     0.87600
O472        O  0.81346506  0.15022496  0.63749819    -0.87700
O473        O  0.76048847  0.12798273  0.66400403    -0.87800
O474        O  0.76306259  0.17727175  0.65445798    -0.74800
Mg475      Mg  0.85119580  0.13011605  0.69763895     1.58000
O476        O  0.75375983  0.07821152  0.70937056    -0.82200
H477        H  0.92989687  0.18207525  0.66128313    -0.05900
O478        O  0.84985989  0.22506886  0.65224249    -0.87500
H479        H  0.83063290  0.25767472  0.65906617    -0.05800
H480        H  0.83357192  0.12417671  0.62502333    -0.05900
C481        C  0.84573105  0.24403706  0.66214048     0.87600
C482        C  0.90868273  0.17890557  0.66924157     0.88200
C483        C  0.83922661  0.14787629  0.63193711     0.88200
H484        H  0.72745338  0.14627459  0.67130817    -0.05900
O485        O  0.78665196  0.15896308  0.69821433    -0.74900
Mg486      Mg  0.80655255  0.19730854  0.63522642     1.58000
H487        H  0.82598837  0.20552829  0.70827961    -0.05900
C488        C  0.95380436  0.29885481  0.67044333     0.93200
O489        O  0.90399975  0.25527552  0.62369185    -0.82200
C490        C  0.88024442  0.24644287  0.61291366     0.93300
O491        O  0.89848230  0.15806547  0.71476834    -0.82200
Mg492      Mg  0.75727273  0.10330380  0.68609391     1.58200
O493        O  0.93799563  0.28546731  0.65745734    -0.80500
O494        O  0.71546238  0.04698483  0.65070043    -0.82200
O495        O  0.77606065  0.65231628  0.66067536    -0.87800
C496        C  0.85588463  0.71157042  0.62913260     0.88300
Mg497      Mg  0.77238858  0.67325337  0.68308620     1.58100
O498        O  0.86456005  0.64196428  0.64778318    -0.87500
O499        O  0.77819836  0.60598508  0.65021032    -0.74800
C500        C  0.93801468  0.74062570  0.71323963     0.93300
O501        O  0.81905650  0.73869993  0.65543504    -0.74600
O502        O  0.91017165  0.74477074  0.71419214    -0.82200
Mg503      Mg  0.78319352  0.68667461  0.64103057     1.58000
C504        C  0.96696737  0.66810673  0.66604688     0.93200
O505        O  0.74598860  0.63851435  0.62534677    -0.80400
H506        H  0.84477251  0.58922610  0.65293952    -0.05800
C507        C  0.92453801  0.74416176  0.66788352     0.88200
O508        O  0.79844298  0.64267086  0.69484206    -0.74900
O509        O  0.82992536  0.68291583  0.63403191    -0.87700
O510        O  0.95194755  0.66841171  0.65320819    -0.80500
C511        C  0.89776586  0.65530163  0.60891349     0.93300
C512        C  0.74706744  0.61726106  0.61508057     0.93200
Mg513      Mg  0.90494076  0.67520555  0.68575310     1.58000
O514        O  0.94143731  0.72179510  0.70246146    -0.80400
O515        O  0.87064253  0.62382638  0.67093462    -0.74700
O516        O  0.86334378  0.64270137  0.61038946    -0.80500
O517        O  0.73343431  0.69108898  0.64769750    -0.82200
O518        O  0.82469152  0.71511505  0.71623374    -0.80500
C519        C  0.85972800  0.61727836  0.65689542     0.87600
O520        O  0.85741781  0.67806126  0.69231021    -0.87700
O521        O  0.91217663  0.71088577  0.66650123    -0.87800
O522        O  0.91092607  0.75711055  0.67743769    -0.74800
Mg523      Mg  0.82185440  0.62845296  0.63087234     1.58000
O524        O  0.92017981  0.67166838  0.61995448    -0.82200
H525        H  0.74281587  0.60074843  0.66734931    -0.05900
O526        O  0.82463821  0.72100976  0.67881113    -0.87500
H527        H  0.84628748  0.77375120  0.67315511    -0.05800
H528        H  0.83579982  0.63062801  0.70379899    -0.05900
C529        C  0.83037003  0.74557989  0.66944211     0.87600
C530        C  0.76454897  0.61908882  0.65969783     0.88200
C531        C  0.83104114  0.64992339  0.69737637     0.88200
H532        H  0.94692772  0.76264633  0.66053898    -0.05900
O533        O  0.88865072  0.72044059  0.63225455    -0.74900
Mg534      Mg  0.86597449  0.73232192  0.69607730     1.58000
H535        H  0.85049347  0.73026062  0.62256666    -0.05900
C536        C  0.72390078  0.69859897  0.66059988     0.93200
O537        O  0.76855697  0.69478768  0.70686819    -0.82200
C538        C  0.79155825  0.70715021  0.71799431     0.93300
O539        O  0.77489875  0.61316846  0.61334518    -0.82200
Mg540      Mg  0.91611903  0.69144091  0.64384780     1.58200
O541        O  0.73960270  0.69922994  0.67335995    -0.80500
O542        O  0.95537251  0.67249777  0.67907230    -0.82200
C543        C  0.60815594  0.77688865  0.85708521    -0.10300
C544        C  0.60172665  0.80284045  0.86439535    -0.04100
C545        C  0.61555873  0.83828740  0.85860636    -0.10300
C546        C  0.63662393  0.84828403  0.84480091     0.10700
C547        C  0.64245783  0.82196645  0.83685869    -0.02100
C548        C  0.62798158  0.78607913  0.84297843     0.10500
C549        C  0.63457476  0.76075174  0.83505438    -0.12100
C550        C  0.65418426  0.77003339  0.82118799    -0.12100
C551        C  0.66833311  0.80514874  0.81475186     0.10500
C552        C  0.66303458  0.83163036  0.82281872    -0.02100
C553        C  0.65135180  0.88357985  0.83854076    -0.12200
C554        C  0.67171845  0.89310789  0.82486544    -0.12200
C555        C  0.67806922  0.86767655  0.81684389     0.10700
C556        C  0.69815416  0.87698402  0.80277753    -0.10300
C557        C  0.70293060  0.85042793  0.79498040    -0.04100
C558        C  0.68829919  0.81471741  0.80064641    -0.10300
H559        H  0.62469368  0.73343403  0.83949798     0.07900
H560        H  0.65853063  0.74940585  0.81569241     0.07900
H561        H  0.64696257  0.90415901  0.84406464     0.08100
H562        H  0.68199713  0.92058982  0.82055222     0.08100
H563        H  0.58624881  0.79543775  0.87513595     0.04600
H564        H  0.71800718  0.85764253  0.78413489     0.04600
C565        C  0.02538518  0.48533448  0.47005430    -0.10300
C566        C  0.02730490  0.51473916  0.46166040    -0.04100
C567        C  0.01476470  0.53733539  0.46779688    -0.10300
C568        C  0.99902954  0.52997918  0.48285482     0.10700
C569        C  0.99777210  0.50098388  0.49177762    -0.02100
C570        C  0.01118514  0.47874537  0.48539825     0.10500
C571        C  0.00909829  0.44992639  0.49438857    -0.12100
C572        C  0.99479810  0.44335899  0.50939743    -0.12100
C573        C  0.98162082  0.46509792  0.51603024     0.10500
C574        C  0.98278124  0.49402254  0.50708173    -0.02100
C575        C  0.98499711  0.55113003  0.48933564    -0.12200
C576        C  0.96951763  0.54372636  0.50413679    -0.12200
C577        C  0.96840448  0.51557683  0.51328625     0.10700
C578        C  0.95244484  0.50764475  0.52831326    -0.10300
C579        C  0.95148974  0.47901097  0.53689742    -0.04100
C580        C  0.96612179  0.45784871  0.53114468    -0.10300
H581        H  0.01820020  0.43182960  0.48988385     0.07900
H582        H  0.99356072  0.42047360  0.51561412     0.07900
H583        H  0.98561626  0.57360130  0.48301514     0.08100
H584        H  0.95837260  0.56037563  0.50830483     0.08100
H585        H  0.03885953  0.52020073  0.45005033     0.04600
H586        H  0.93973970  0.47362772  0.54847668     0.04600
C587        C  0.50908962  0.55054428  0.47267293    -0.10300
C588        C  0.47527396  0.52770416  0.46561181    -0.04100
C589        C  0.44925784  0.49450080  0.47222693    -0.10300
C590        C  0.45747370  0.48334322  0.48652829     0.10700
C591        C  0.49200976  0.50556002  0.49374909    -0.02100
C592        C  0.51793190  0.53918580  0.48677851     0.10500
C593        C  0.55173545  0.56071222  0.49422790    -0.12100
C594        C  0.56042844  0.54921703  0.50799541    -0.12100
C595        C  0.53557589  0.51583432  0.51498529     0.10500
C596        C  0.50070315  0.49403088  0.50795019    -0.02100
C597        C  0.43201264  0.45071928  0.49387318    -0.12200
C598        C  0.44035524  0.43964913  0.50783572    -0.12200
C599        C  0.47447917  0.46076299  0.51508391     0.10700
C600        C  0.48340236  0.44922151  0.52910805    -0.10300
C601        C  0.51810197  0.47094185  0.53565041    -0.04100
C602        C  0.54425541  0.50403321  0.52900591    -0.10300
H603        H  0.57185153  0.58685810  0.48954017     0.07900
H604        H  0.58679246  0.56712910  0.51319391     0.07900
H605        H  0.40514503  0.43343421  0.48897454     0.08100
H606        H  0.41979607  0.41405890  0.51279977     0.08100
H607        H  0.46988963  0.53516677  0.45425020     0.04600
H608        H  0.52486204  0.46189721  0.54630505     0.04600
C609        C  0.52985309  0.99414261  0.46587415    -0.10300
C610        C  0.49837674  0.98440468  0.45702687    -0.04100
C611        C  0.47039269  0.99052850  0.46228412    -0.10300
C612        C  0.47446431  0.00787196  0.47694349     0.10700
C613        C  0.50656902  0.01858198  0.48599577    -0.02100
C614        C  0.53424412  0.01159686  0.48044591     0.10500
C615        C  0.56582123  0.02269179  0.48951714    -0.12100
C616        C  0.57016945  0.03998652  0.50383089    -0.12100
C617        C  0.54311167  0.04693271  0.50971784     0.10500
C618        C  0.51077173  0.03579526  0.50076226    -0.02100
C619        C  0.44691838  0.01384565  0.48303735    -0.12200
C620        C  0.45067020  0.02992933  0.49762427    -0.12200
C621        C  0.48231481  0.04115606  0.50666564     0.10700
C622        C  0.48590269  0.05664881  0.52164696    -0.10300
C623        C  0.51842664  0.06857125  0.53001222    -0.04100
C624        C  0.54709173  0.06391156  0.52445322    -0.10300
H625        H  0.58770927  0.01828931  0.48559887     0.07900
H626        H  0.59485794  0.04730695  0.51032074     0.07900
H627        H  0.42173786  0.00545931  0.47675329     0.08100
H628        H  0.42828468  0.03324620  0.50178677     0.08100
H629        H  0.49551337  0.97140829  0.44581853     0.04600
H630        H  0.52156478  0.08243790  0.54102020     0.04600
O631        O  0.01247041  0.94294758  0.01226741    -0.87800
C632        C  0.06979038  0.02815293  0.98274991     0.88300
Mg633      Mg  0.95639375  0.90220227  0.00783172     1.58100
O634        O  0.04502029  0.05266089  0.01792660    -0.87500
O635        O  0.04680546  0.98235607  0.03011727    -0.74800
C636        C  0.87422740  0.99952947  0.99427888     0.93300
O637        O  0.00409120  0.94618890  0.97530876    -0.74600
O638        O  0.87010575  0.96823629  0.99085929    -0.82200
Mg639      Mg  0.04913779  0.95520445  0.99298828     1.58000
C640        C  0.99888878  0.12066736  0.01605982     0.93200
O641        O  0.09671616  0.96202743  0.00832768    -0.80400
H642        H  0.04696945  0.05507516  0.04116450    -0.05800
C643        C  0.97574227  0.03600986  0.98129288     0.88200
O644        O  0.93665892  0.93042423  0.02518030    -0.74900
O645        O  0.06525337  0.01160828  0.99513012    -0.87700
O646        O  0.02780738  0.12078735  0.01164077    -0.80500
C647        C  0.13033992  0.12232302  0.00391960     0.93300
C648        C  0.12505386  0.98705895  0.01505992     0.93200
Mg649      Mg  0.95181117  0.03139534  0.01486702     1.58000
O650        O  0.90336250  0.02451795  0.00049350    -0.80400
O651        O  0.99733493  0.04106317  0.03203389    -0.74700
O652        O  0.12856332  0.09219477  0.00765387    -0.80500
O653        O  0.03336656  0.89609325  0.99053499    -0.82200
O654        O  0.87109117  0.89428581  0.99963909    -0.80500
C655        C  0.03080806  0.05039092  0.03074382     0.87600
O656        O  0.93530795  0.97451804  0.01237266    -0.87700
O657        O  0.98671889  0.04267447  0.99488717    -0.87800
O658        O  0.95096017  0.00440013  0.97711589    -0.74800
Mg659      Mg  0.08569408  0.03622984  0.01756537     1.58000
O660        O  0.10203875  0.12490854  0.00122240    -0.82200
H661        H  0.00889415  0.92969406  0.03479212    -0.05900
O662        O  0.95534741  0.93477831  0.98869082    -0.87500
H663        H  0.95567696  0.93443136  0.96541392    -0.05800
H664        H  0.91953952  0.96355292  0.03458984    -0.05900
C665        C  0.97074304  0.93796083  0.97607663     0.87600
C666        C  0.02222234  0.95050509  0.02600001     0.88200
C667        C  0.92976380  0.95648883  0.02439917     0.88200
H668        H  0.98825036  0.05735286  0.97265985    -0.05900
O669        O  0.06148044  0.05307293  0.98130608    -0.74900
Mg670      Mg  0.91373330  0.95061858  0.98984361     1.58000
H671        H  0.07981686  0.02026918  0.97273718    -0.05900
C672        C  0.00267510  0.86687902  0.98985096     0.93200
O673        O  0.89728239  0.86003087  0.00318060    -0.82200
C674        C  0.86904583  0.86327768  0.00140472     0.93300
O675        O  0.12894034  0.01850094  0.01784618    -0.82200
Mg676      Mg  0.04289853  0.08298292  0.99801453     1.58200
O677        O  0.97285043  0.86646604  0.99287230    -0.80500
O678        O  0.96851890  0.09123790  0.01738632    -0.82200
O679        O  0.65383640  0.38047959  0.34976744    -0.87800
C680        C  0.59529773  0.30775574  0.31540469     0.88300
Mg681      Mg  0.71125036  0.41823078  0.34718830     1.58100
O682        O  0.61744138  0.27129903  0.34765862    -0.87500
O683        O  0.61672273  0.33703231  0.36540704    -0.74800
C684        C  0.78666702  0.32290375  0.32077884     0.93300
O685        O  0.66470279  0.39174521  0.31284516    -0.74600
O686        O  0.78939639  0.35428076  0.32004664    -0.82200
Mg687      Mg  0.61943668  0.37853228  0.33083713     1.58000
C688        C  0.65494186  0.19766484  0.34012244     0.93200
O689        O  0.57012432  0.36842743  0.34632910    -0.80400
H690        H  0.61600949  0.26133147  0.37047984    -0.05800
C691        C  0.68328239  0.29380636  0.30970550     0.88200
O692        O  0.72580809  0.38017986  0.36076699    -0.74900
O693        O  0.60036984  0.32100249  0.32864585    -0.87700
O694        O  0.62757291  0.20233792  0.33832988    -0.80500
C695        C  0.52876926  0.20865866  0.33237607     0.93300
C696        C  0.54028242  0.34069877  0.35064821     0.93200
Mg697      Mg  0.70849302  0.28479871  0.34171603     1.58000
O698        O  0.75778650  0.29504602  0.32584560    -0.80400
O699        O  0.66349413  0.27234050  0.35994126    -0.74700
O700        O  0.53349795  0.23983395  0.33625979    -0.80500
O701        O  0.64047247  0.43941613  0.33311148    -0.82200
O702        O  0.79319610  0.42260828  0.33629879    -0.80500
C703        C  0.63134646  0.26782908  0.35975341     0.87600
O704        O  0.72732497  0.34195649  0.34384639    -0.87700
O705        O  0.67312528  0.28215079  0.32302289    -0.87800
O706        O  0.70880922  0.32627370  0.30727244    -0.74800
Mg707      Mg  0.57796012  0.28956270  0.34948178     1.58000
O708        O  0.55546855  0.20340475  0.32970914    -0.82200
H709        H  0.65605162  0.38699568  0.37287959    -0.05900
O710        O  0.71008746  0.39240737  0.32547894    -0.87500
H711        H  0.71299935  0.40403563  0.30278984    -0.05800
H712        H  0.73998546  0.34206439  0.36628947    -0.05900
C713        C  0.69695725  0.39671389  0.31333662     0.87600
C714        C  0.64272532  0.36926816  0.36303777     0.88200
C715        C  0.73181890  0.35434285  0.35723284     0.88200
H716        H  0.66940611  0.27627211  0.29987760    -0.05900
O717        O  0.60042756  0.28114853  0.31224200    -0.74900
Mg718      Mg  0.74862845  0.37362538  0.32300983     1.58000
H719        H  0.58700951  0.31959052  0.30620468    -0.05900
C720        C  0.67317869  0.46594372  0.33348735     0.93200
O721        O  0.77198373  0.45833855  0.34495288    -0.82200
C722        C  0.79830744  0.45275637  0.34185060     0.93300
O723        O  0.53664062  0.30891462  0.35138167    -0.82200
Mg724      Mg  0.61582761  0.24413984  0.32632695     1.58200
O725        O  0.70046297  0.46131859  0.33574581    -0.80500
O726        O  0.68769054  0.22406385  0.33979758    -0.82200
O727        O  0.29418191  0.68422963  0.65827704    -0.87800
C728        C  0.36715646  0.72076388  0.69386535     0.88300
Mg729      Mg  0.24919157  0.62957165  0.65756335     1.58100
O730        O  0.39956161  0.70437643  0.65876415    -0.87500
O731        O  0.34092932  0.72188280  0.64414661    -0.74800
C732        C  0.32005138  0.52394027  0.67266270     0.93300
O733        O  0.28025262  0.66143523  0.69422358    -0.74600
O734        O  0.29101939  0.52534373  0.67500515    -0.82200
Mg735      Mg  0.30092255  0.71362363  0.67952852     1.58000
C736        C  0.45727861  0.64903223  0.65858000     0.93200
O737        O  0.31927785  0.76813099  0.66702251    -0.80400
H738        H  0.40937652  0.71357286  0.63598517    -0.05800
C739        C  0.36352737  0.62224042  0.69068196     0.88200
O740        O  0.28003922  0.61186171  0.64094839    -0.74900
O741        O  0.35608870  0.72352129  0.68087450    -0.87700
O742        O  0.45760059  0.67651783  0.66494963    -0.80500
C743        C  0.47011469  0.78016018  0.67978383     0.93300
C744        C  0.34908007  0.79687891  0.66362677     0.93200
Mg745      Mg  0.36838435  0.60757417  0.65626780     1.58000
O746        O  0.34963503  0.55140512  0.66785508    -0.80400
O747        O  0.38839225  0.66044108  0.64217293    -0.74700
O748        O  0.44315463  0.78328575  0.67495938    -0.80500
O749        O  0.24219321  0.70300735  0.67853538    -0.82200
O750        O  0.22562133  0.53730279  0.66267548    -0.80500
C751        C  0.39998069  0.69388566  0.64535216     0.87600
O752        O  0.31308532  0.59720971  0.65575942    -0.87700
O753        O  0.37629108  0.63651445  0.67797193    -0.87800
O754        O  0.32965345  0.60024880  0.69247397    -0.74800
Mg755      Mg  0.38998510  0.74959701  0.66087332     1.58000
O756        O  0.46837749  0.74928114  0.68094358    -0.82200
H757        H  0.28954860  0.69130445  0.63554589    -0.05900
O758        O  0.27081955  0.61752347  0.67794421    -0.87500
H759        H  0.25970512  0.60848192  0.70065766    -0.05800
H760        H  0.31091037  0.59100704  0.63264056    -0.05900
C761        C  0.26946104  0.62804940  0.69124417     0.87600
C762        C  0.30717458  0.69888685  0.64564536     0.88200
C763        C  0.30147624  0.59912755  0.64277519     0.88200
H764        H  0.38149063  0.62970513  0.70066430    -0.05900
O765        O  0.38890167  0.70833158  0.69560294    -0.74900
Mg766      Mg  0.28004097  0.57224674  0.67622188     1.58000
H767        H  0.35715548  0.72805582  0.70406271    -0.05900
C768        C  0.21284201  0.67245763  0.67708802     0.93200
O769        O  0.20177332  0.57222052  0.65615854    -0.82200
C770        C  0.19912301  0.54104877  0.65766818     0.93300
O771        O  0.37938337  0.79722793  0.66273611    -0.82200
Mg772      Mg  0.42086788  0.69142337  0.67912574     1.58200
O773        O  0.21273625  0.64396316  0.67216335    -0.80500
O774        O  0.42761137  0.61929708  0.65601757    -0.82200
C775        C  0.05815612  0.67440747  0.67744467     0.19300
C776        C  0.07097361  0.66132017  0.68952069    -0.18800
C777        C  0.10690304  0.66779549  0.68941267    -0.11100
C778        C  0.13093697  0.68824888  0.67736499     0.21500
C779        C  0.11845975  0.70230020  0.66555208    -0.20400
C780        C  0.08235029  0.69521172  0.66549342    -0.11300
C781        C  0.16894133  0.69493226  0.67670389    -0.15400
C782        C  0.17718313  0.66908655  0.68071584    -0.29300
C783        C  0.02052434  0.66874591  0.67822294    -0.03600
C784        C  0.00064835  0.66554081  0.66543050    -0.40100
H785        H  0.05307535  0.64592358  0.69902068     0.12700
H786        H  0.11601027  0.65727510  0.69886287     0.12300
H787        H  0.13658012  0.71839420  0.65622921     0.11700
H788        H  0.07371494  0.70681567  0.65630469     0.12000
H789        H  0.18960307  0.71972149  0.67108131     0.14700
H790        H  0.15565983  0.64261452  0.68467684     0.13500
H791        H  0.00941417  0.66836064  0.68967242     0.11200
H792        H  0.01100367  0.66424518  0.65401612     0.13200
C793        C  0.63151670  0.69249953  0.65142624     0.19300
C794        C  0.60178811  0.66722843  0.64241787    -0.18800
C795        C  0.56700590  0.66320474  0.64434192    -0.11100
C796        C  0.56128375  0.68468610  0.65529870     0.21500
C797        C  0.59136806  0.71103846  0.66382243    -0.20400
C798        C  0.62606923  0.71492447  0.66195498    -0.11300
C799        C  0.52481726  0.68115089  0.65810624    -0.15400
C800        C  0.49253295  0.65150943  0.65438220    -0.29300
C801        C  0.66733921  0.69390139  0.64975053    -0.03600
C802        C  0.69238937  0.70484772  0.66125442    -0.40100
H803        H  0.60532104  0.64995514  0.63406545     0.12700
H804        H  0.54490795  0.64343689  0.63716561     0.12300
H805        H  0.58792690  0.72843597  0.67213856     0.11700
H806        H  0.64845753  0.73557736  0.66874186     0.12000
H807        H  0.52461618  0.70356104  0.66429123     0.14700
H808        H  0.49165244  0.62797798  0.64882307     0.13500
H809        H  0.67151979  0.68182964  0.63931764     0.11200
H810        H  0.68754052  0.71447346  0.67222634     0.13200
C811        C  0.74333730  0.73382290  0.74918787     0.19300
C812        C  0.70761193  0.72657369  0.75218362    -0.18800
C813        C  0.70072144  0.74543787  0.76393303    -0.11100
C814        C  0.72962431  0.77225345  0.77288785     0.21500
C815        C  0.76521812  0.77910692  0.77004240    -0.20400
C816        C  0.77207849  0.76015935  0.75838482    -0.11300
C817        C  0.72450496  0.79619897  0.78412442    -0.15400
C818        C  0.69255447  0.78758715  0.79101192    -0.29300
C819        C  0.75015799  0.71673382  0.73533584    -0.03600
C820        C  0.78105384  0.71524049  0.73326837    -0.40100
H821        H  0.68505451  0.70693982  0.74511478     0.12700
H822        H  0.67303453  0.74007152  0.76545050     0.12300
H823        H  0.78803703  0.79999776  0.77659807     0.11700
H824        H  0.80017686  0.76767388  0.75619016     0.12000
H825        H  0.74832888  0.82246591  0.78681572     0.14700
H826        H  0.66901469  0.76057616  0.78945171     0.13500
H827        H  0.72990432  0.70714127  0.72606517     0.11200
H828        H  0.80113616  0.72368296  0.74253957     0.13200
C829        C  0.61778303  0.54082666  0.56183049     0.19300
C830        C  0.61446534  0.53819525  0.57810582    -0.18800
C831        C  0.64519841  0.55070333  0.58763842    -0.11100
C832        C  0.68040313  0.56672450  0.58116230     0.21500
C833        C  0.68386010  0.56834907  0.56487488    -0.20400
C834        C  0.65291155  0.55567071  0.55526189    -0.11300
C835        C  0.71368044  0.58264035  0.59121553    -0.15400
C836        C  0.71437972  0.59780107  0.60510211    -0.29300
C837        C  0.58346798  0.52647548  0.55253444    -0.03600
C838        C  0.58074805  0.52455499  0.53684835    -0.40100
H839        H  0.58781734  0.52624432  0.58353842     0.12700
H840        H  0.64118737  0.54759956  0.60010220     0.12300
H841        H  0.71064130  0.58021959  0.55958420     0.11700
H842        H  0.65685696  0.55783472  0.54280574     0.12000
H843        H  0.73858919  0.58454469  0.58665934     0.14700
H844        H  0.69035669  0.59873434  0.60897362     0.13500
H845        H  0.55831655  0.51571286  0.55918579     0.11200
H846        H  0.60501349  0.53637784  0.52966828     0.13200
C847        C  0.93769811  0.58006122  0.54967387     0.19300
C848        C  0.96144876  0.60985498  0.55898766    -0.18800
C849        C  0.94785249  0.62486020  0.56985854    -0.11100
C850        C  0.90986417  0.61063942  0.57156604     0.21500
C851        C  0.88624593  0.58202730  0.56163010    -0.20400
C852        C  0.89989666  0.56696959  0.55078838    -0.11300
C853        C  0.89353280  0.62249192  0.58422323    -0.15400
C854        C  0.91316554  0.64986532  0.59433561    -0.29300
C855        C  0.95328011  0.56251377  0.53949110    -0.03600
C856        C  0.93462318  0.52689658  0.53553592    -0.40100
H857        H  0.99069367  0.62069980  0.55828970     0.12700
H858        H  0.96749177  0.64671826  0.57712536     0.12300
H859        H  0.85694968  0.57061032  0.56251187     0.11700
H860        H  0.88070618  0.54482926  0.54344841     0.12000
H861        H  0.86421453  0.60611457  0.58601577     0.14700
H862        H  0.94245428  0.66659963  0.59304536     0.13500
H863        H  0.98208188  0.57823263  0.53649894     0.11200
H864        H  0.90709935  0.50981179  0.53989287     0.13200
C865        C  0.54963795  0.87941393  0.67862383     0.19300
C866        C  0.55782385  0.90653363  0.66739913    -0.18800
C867        C  0.59258958  0.93730898  0.66662777    -0.11100
C868        C  0.62003008  0.94190862  0.67720981     0.21500
C869        C  0.61155927  0.91548114  0.68883020    -0.20400
C870        C  0.57677391  0.88430130  0.68947392    -0.11300
C871        C  0.65669244  0.97527914  0.67693896    -0.15400
C872        C  0.67211433  0.99364894  0.66371200    -0.29300
C873        C  0.51256367  0.84660077  0.67841512    -0.03600
C874        C  0.50533500  0.81335307  0.68333295    -0.40100
H875        H  0.53730380  0.90369595  0.65903954     0.12700
H876        H  0.59762666  0.95781525  0.65792134     0.12300
H877        H  0.63198370  0.91886355  0.69734832     0.11700
H878        H  0.57112781  0.86444764  0.69856161     0.12000
H879        H  0.67083923  0.98543674  0.68797180     0.14700
H880        H  0.65889210  0.98261921  0.65259348     0.13500
H881        H  0.49120734  0.84911016  0.67240776     0.11200
H882        H  0.52687296  0.80967058  0.68840534     0.13200
C883        C  0.04297444  0.38468710  0.65836066     0.19300
C884        C  0.05425248  0.41219683  0.64706221    -0.18800
C885        C  0.09020150  0.44152494  0.64697144    -0.11100
C886        C  0.11575155  0.44360337  0.65811204     0.21500
C887        C  0.10472760  0.41529963  0.66900505    -0.20400
C888        C  0.06877805  0.38627585  0.66919675    -0.11300
C889        C  0.15384208  0.47488910  0.65899583    -0.15400
C890        C  0.16336223  0.50870708  0.65400771    -0.29300
C891        C  0.00506838  0.35318028  0.65796870    -0.03600
C892        C  0.98761096  0.33480873  0.67090252    -0.40100
H893        H  0.03513710  0.41107824  0.63834152     0.12700
H894        H  0.09789468  0.46214439  0.63805351     0.12300
H895        H  0.12390486  0.41589491  0.67756850     0.11700
H896        H  0.06147225  0.36476115  0.67766655     0.12000
H897        H  0.17380539  0.47083991  0.66539503     0.14700
H898        H  0.14309931  0.51383635  0.64857822     0.13500
H899        H  0.99181223  0.34419192  0.64669599     0.11200
H900        H  0.00025337  0.34472531  0.68221647     0.13200
C901        C  0.72738155  0.95387372  0.77223347     0.19300
C902        C  0.71195594  0.95556237  0.75802211    -0.18800
C903        C  0.72831713  0.98721604  0.74903685    -0.11100
C904        C  0.76080308  0.01812639  0.75400357     0.21500
C905        C  0.77653889  0.01651700  0.76818149    -0.20400
C906        C  0.75981656  0.98476878  0.77732715    -0.11300
C907        C  0.77988400  0.05054811  0.74369317    -0.15400
C908        C  0.76094666  0.06046325  0.73420649    -0.29300
C909        C  0.71036529  0.91832176  0.78052480    -0.03600
C910        C  0.71454036  0.91416256  0.79578363    -0.40100
H911        H  0.68739121  0.93198657  0.75369418     0.12700
H912        H  0.71615821  0.98685450  0.73788349     0.12300
H913        H  0.80195705  0.03967700  0.77208207     0.11700
H914        H  0.77305650  0.98407452  0.78801382     0.12000
H915        H  0.80947336  0.06408108  0.74289413     0.14700
H916        H  0.73145163  0.04723716  0.73544926     0.13500
H917        H  0.69282866  0.89406953  0.77368690     0.11200
H918        H  0.72956588  0.93788563  0.80321391     0.13200
C919        C  0.61213248  0.09304443  0.56063043     0.19300
C920        C  0.60530043  0.08789915  0.57670106    -0.18800
C921        C  0.63384636  0.10318161  0.58753511    -0.11100
C922        C  0.67035891  0.12393355  0.58260404     0.21500
C923        C  0.67729197  0.12980644  0.56655637    -0.20400
C924        C  0.64861123  0.11449713  0.55566317    -0.11300
C925        C  0.70160505  0.13953871  0.59387296    -0.15400
C926        C  0.69971575  0.12443426  0.60791361    -0.29300
C927        C  0.58001063  0.07636980  0.54982954    -0.03600
C928        C  0.58122834  0.07840374  0.53410438    -0.40100
H929        H  0.57755889  0.07207331  0.58095900     0.12700
H930        H  0.62700139  0.09899373  0.59976741     0.12300
H931        H  0.70508714  0.14593506  0.56241058     0.11700
H932        H  0.65536442  0.11972955  0.54346730     0.12000
H933        H  0.72756508  0.16219712  0.59006867     0.14700
H934        H  0.67482116  0.09992207  0.61126565     0.13500
H935        H  0.55332464  0.06152235  0.55529178     0.11200
H936        H  0.60725098  0.09152074  0.52815347     0.13200
C937        C  0.92410368  0.32467803  0.58301817     0.19300
C938        C  0.95900243  0.35380807  0.57940800    -0.18800
C939        C  0.96345664  0.37982083  0.56814477    -0.11100
C940        C  0.93288155  0.37738967  0.56038546     0.21500
C941        C  0.89812707  0.34823266  0.56395914    -0.20400
C942        C  0.89371020  0.32218531  0.57507078    -0.11300
C943        C  0.93537184  0.40596254  0.54947988    -0.15400
C944        C  0.96547077  0.42889462  0.54138306    -0.29300
C945        C  0.91965353  0.29981875  0.59623386    -0.03600
C946        C  0.88990058  0.26651911  0.59798106    -0.40100
H947        H  0.98281269  0.35686004  0.58555397     0.12700
H948        H  0.99060550  0.40244462  0.56601700     0.12300
H949        H  0.87407213  0.34598855  0.55834175     0.11700
H950        H  0.86619071  0.30118166  0.57785293     0.12000
H951        H  0.91068472  0.40759877  0.54771762     0.14700
H952        H  0.98968434  0.42614363  0.54201334     0.13500
H953        H  0.94033899  0.31038408  0.60533296     0.11200
H954        H  0.86954144  0.25527823  0.58879598     0.13200
C955        C  0.99153494  0.78244690  0.75145876     0.19300
C956        C  0.98146635  0.78519223  0.76678591    -0.18800
C957        C  0.00729110  0.79768107  0.77886757    -0.11100
C958        C  0.04386766  0.80771866  0.77581376     0.21500
C959        C  0.05385470  0.80498926  0.76051142    -0.20400
C960        C  0.02820766  0.79271109  0.74847789    -0.11300
C961        C  0.07338582  0.82435303  0.78767943    -0.15400
C962        C  0.06861222  0.82538085  0.80315988    -0.29300
C963        C  0.96333760  0.76946088  0.73889921    -0.03600
C964        C  0.96726593  0.75667565  0.72507472    -0.40100
H965        H  0.95352342  0.77782922  0.76941214     0.12700
H966        H  0.99859475  0.80023827  0.79040424     0.12300
H967        H  0.08195272  0.81315974  0.75775571     0.11700
H968        H  0.03774370  0.79236375  0.73685017     0.12000
H969        H  0.10123279  0.83766617  0.78328720     0.14700
H970        H  0.04163215  0.81049908  0.80827500     0.13500
H971        H  0.93769074  0.76863354  0.74142395     0.11200
H972        H  0.99154246  0.75489561  0.72265929     0.13200
C973        C  0.00117772  0.23947508  0.74622154     0.19300
C974        C  0.02668790  0.22751278  0.74453727    -0.18800
C975        C  0.05540624  0.23846934  0.75517470    -0.11100
C976        C  0.05891397  0.26092151  0.76792567     0.21500
C977        C  0.03295076  0.27223523  0.76987615    -0.20400
C978        C  0.00461286  0.26196378  0.75897694    -0.11300
C979        C  0.09191545  0.27440658  0.77792691    -0.15400
C980        C  0.09337749  0.28096243  0.79343031    -0.29300
C981        C  0.97236713  0.23080210  0.73427821    -0.03600
C982        C  0.95508146  0.19852869  0.72669584    -0.40100
H983        H  0.02530767  0.21084886  0.73467482     0.12700
H984        H  0.07532467  0.22972649  0.75332568     0.12300
H985        H  0.03538402  0.29015878  0.77939991     0.11700
H986        H  0.98546987  0.27182083  0.76043138     0.12000
H987        H  0.11619685  0.27787141  0.77204506     0.14700
H988        H  0.06921062  0.27779503  0.79926717     0.13500
H989        H  0.96395771  0.25097755  0.73216066     0.11200
H990        H  0.96053626  0.17674396  0.72985205     0.13200
C991        C  0.32513146  0.37067463  0.66983967     0.19300
C992        C  0.31605623  0.38481154  0.68279631    -0.18800
C993        C  0.32144032  0.42029936  0.68254975    -0.11100
C994        C  0.33643693  0.44249092  0.66934629     0.21500
C995        C  0.34657376  0.42879149  0.65657665    -0.20400
C996        C  0.34084021  0.39317302  0.65675675    -0.11300
C997        C  0.34159562  0.47986987  0.66850039    -0.15400
C998        C  0.31838768  0.48867626  0.67534142    -0.29300
C999        C  0.32093046  0.33367503  0.67086729    -0.03600
C1000       C  0.31724268  0.31296740  0.65831888    -0.40100
H1001       H  0.30478466  0.36833135  0.69314757     0.12700
H1002       H  0.31435711  0.43045921  0.69277712     0.12300
H1003       H  0.35861906  0.44558240  0.64636569     0.11700
H1004       H  0.34960884  0.38377286  0.64680482     0.12000
H1005       H  0.36275658  0.49949873  0.66085346     0.14700
H1006       H  0.29519251  0.46817695  0.68185277     0.13500
H1007       H  0.32232834  0.32380335  0.68239169     0.11200
H1008       H  0.31452957  0.32187255  0.64678754     0.13200
C1009       C  0.37451494  0.89786811  0.66230115     0.19300
C1010       C  0.39865109  0.92810639  0.67135512    -0.18800
C1011       C  0.39532921  0.95953610  0.67187924    -0.11100
C1012       C  0.36809345  0.96134137  0.66312033     0.21500
C1013       C  0.34495641  0.93167463  0.65360963    -0.20400
C1014       C  0.34797057  0.90019049  0.65323169    -0.11300
C1015       C  0.36341413  0.99389333  0.66318233    -0.15400
C1016       C  0.37041945  0.01599944  0.67558778    -0.29300
C1017       C  0.37722499  0.86411024  0.66269450    -0.03600
C1018       C  0.34768358  0.83070805  0.66115730    -0.40100
H1019       H  0.41961882  0.92709962  0.67828135     0.12700
H1020       H  0.41424241  0.98241092  0.67898259     0.12300
H1021       H  0.32414946  0.93270471  0.64656676     0.11700
H1022       H  0.32969568  0.87788162  0.64572557     0.12000
H1023       H  0.35081846  0.99805329  0.65291385     0.14700
H1024       H  0.38044024  0.01075623  0.68638002     0.13500
H1025       H  0.40339915  0.86657364  0.66571460     0.11200
H1026       H  0.32086214  0.82788949  0.65953705     0.13200
C1027       C  0.24412668  0.02709014  0.75965431     0.19300
C1028       C  0.23974948  0.03539274  0.77510741    -0.18800
C1029       C  0.22434252  0.00776688  0.78645596    -0.11100
C1030       C  0.21287985  0.97119543  0.78247713     0.21500
C1031       C  0.21752070  0.96317169  0.76707016    -0.20400
C1032       C  0.23258347  0.99048739  0.75581509    -0.11300
C1033       C  0.19298124  0.93963025  0.79321658    -0.15400
C1034       C  0.18493416  0.94084058  0.80834663    -0.29300
C1035       C  0.25937157  0.05649822  0.74759305    -0.03600
C1036       C  0.27555707  0.05368424  0.73454159    -0.40100
H1037       H  0.24804404  0.06327950  0.77837579     0.12700
H1038       H  0.22080192  0.01509946  0.79812783     0.12300
H1039       H  0.20844683  0.93524916  0.76354850     0.11700
H1040       H  0.23394404  0.98236219  0.74400541     0.12000
H1041       H  0.18219310  0.91270739  0.78795170     0.14700
H1042       H  0.19625508  0.96654097  0.81460997     0.13500
H1043       H  0.25796910  0.08121224  0.74964996     0.11200
H1044       H  0.27946586  0.03031320  0.73298202     0.13200
C1045       C  0.25185141  0.27641727  0.77817889     0.19300
C1046       C  0.27201609  0.29705659  0.76533397    -0.18800
C1047       C  0.28637384  0.28269436  0.75454621    -0.11100
C1048       C  0.28141827  0.24731071  0.75647713     0.21500
C1049       C  0.26201954  0.22700155  0.76956489    -0.20400
C1050       C  0.24755952  0.24138289  0.78035463    -0.11300
C1051       C  0.29317414  0.22958695  0.74448563    -0.15400
C1052       C  0.31763550  0.24807738  0.73319163    -0.29300
C1053       C  0.23480820  0.29204939  0.78859654    -0.03600
C1054       C  0.20489075  0.27155782  0.79723679    -0.40100
H1055       H  0.27566348  0.32404647  0.76333322     0.12700
H1056       H  0.30009010  0.29907517  0.74446784     0.12300
H1057       H  0.25763674  0.19967008  0.77135216     0.11700
H1058       H  0.23297310  0.22490035  0.79030134     0.12000
H1059       H  0.27953774  0.19989307  0.74446225     0.14700
H1060       H  0.33201762  0.27770372  0.73306334     0.13500
H1061       H  0.24487882  0.32129165  0.78792729     0.11200
H1062       H  0.19188545  0.24197875  0.79687510     0.13200
C1063       C  0.38634572  0.07780017  0.57616455     0.19300
C1064       C  0.39913524  0.09731584  0.56216527    -0.18800
C1065       C  0.41675525  0.08714237  0.55103814    -0.11100
C1066       C  0.42215427  0.05725218  0.55377700     0.21500
C1067       C  0.40814982  0.03696661  0.56748163    -0.20400
C1068       C  0.39046208  0.04698896  0.57853779    -0.11300
C1069       C  0.44623190  0.04918644  0.54390093    -0.15400
C1070       C  0.45645010  0.06095509  0.52920030    -0.29300
C1071       C  0.37354462  0.09305360  0.58878829    -0.03600
C1072       C  0.35486985  0.07389043  0.60139881    -0.40100
H1073       H  0.39678059  0.12141680  0.56010284     0.12700
H1074       H  0.42781541  0.10395671  0.54078746     0.12300
H1075       H  0.41229659  0.01408577  0.56997632     0.11700
H1076       H  0.38211472  0.03167583  0.58927280     0.12000
H1077       H  0.45752118  0.03362072  0.54932075     0.14700
H1078       H  0.44421302  0.07445491  0.52287946     0.13500
H1079       H  0.38234953  0.12202872  0.58821041     0.11200
H1080       H  0.34471790  0.04471014  0.60200911     0.13200
C1081       C  0.44720514  0.36595796  0.55696932     0.19300
C1082       C  0.46264629  0.34530287  0.56251753    -0.18800
C1083       C  0.44696144  0.32103187  0.57491727    -0.11100
C1084       C  0.41496516  0.31640813  0.58209944     0.21500
C1085       C  0.39924700  0.33682617  0.57649635    -0.20400
C1086       C  0.41507897  0.36130956  0.56406257    -0.11300
C1087       C  0.39827472  0.29183275  0.59579766    -0.15400
C1088       C  0.40457275  0.26427506  0.59935186    -0.29300
C1089       C  0.46793775  0.39433922  0.54496285    -0.03600
C1090       C  0.45687746  0.41581951  0.53789335    -0.40100
H1091       H  0.48769838  0.34868171  0.55750101     0.12700
H1092       H  0.46086439  0.30698045  0.57908560     0.12300
H1093       H  0.37481485  0.33412733  0.58188046     0.11700
H1094       H  0.40258267  0.37710964  0.56042392     0.12000
H1095       H  0.37944171  0.29600988  0.60296464     0.14700
H1096       H  0.42149051  0.25821635  0.59182121     0.13500
H1097       H  0.49523720  0.39925573  0.54235973     0.11200
H1098       H  0.42917631  0.41061450  0.53930884     0.13200
C1099       C  0.01783586  0.28399934  0.00241581     0.19300
C1100       C  0.99027028  0.25531618  0.01113271    -0.18800
C1101       C  0.99267348  0.22415275  0.01475904    -0.11100
C1102       C  0.02267922  0.22080918  0.00968716     0.21500
C1103       C  0.05030824  0.24975473  0.00115490    -0.20400
C1104       C  0.04782965  0.28078793  0.99750267    -0.11300
C1105       C  0.02532281  0.18698748  0.01184064    -0.15400
C1106       C  0.99940663  0.15573428  0.01842062    -0.29300
C1107       C  0.01633528  0.31751952  0.99813363    -0.03600
C1108       C  0.99804826  0.33032459  0.00646526    -0.40100
H1109       H  0.96631978  0.25634252  0.01487250     0.12700
H1110       H  0.97053360  0.20275833  0.02127768     0.12300
H1111       H  0.07367997  0.24807875  0.99699835     0.11700
H1112       H  0.06949667  0.30241439  0.99078971     0.12000
H1113       H  0.04846212  0.18677977  0.00636990     0.14700
H1114       H  0.97540116  0.15427000  0.02368110     0.13500
H1115       H  0.03362912  0.33406925  0.98863176     0.11200
H1116       H  0.98330837  0.31598539  0.01685033     0.13200
C1117       C  0.03160059  0.79338986  0.98711726     0.19300
C1118       C  0.05732704  0.78922583  0.99597432    -0.18800
C1119       C  0.05745716  0.75610183  0.99598801    -0.11100
C1120       C  0.03209872  0.72650537  0.98692776     0.21500
C1121       C  0.00750170  0.73121266  0.97749028    -0.20400
C1122       C  0.00696985  0.76420030  0.97767393    -0.11300
C1123       C  0.03031903  0.69036001  0.98720564    -0.15400
C1124       C  0.03760228  0.67686140  0.00009392    -0.29300
C1125       C  0.03172075  0.82868211  0.98800699    -0.03600
C1126       C  0.00168567  0.83200725  0.98623038    -0.40100
H1127       H  0.07697916  0.81149840  0.00316407     0.12700
H1128       H  0.07750586  0.75379169  0.00303897     0.12300
H1129       H  0.98803641  0.70897540  0.97023650     0.11700
H1130       H  0.98748356  0.76683963  0.97036759     0.12000
H1131       H  0.01927743  0.67292860  0.97700474     0.14700
H1132       H  0.04559067  0.69281317  0.01076986     0.13500
H1133       H  0.05706360  0.85241991  0.99173490     0.11200
H1134       H  0.97541850  0.80813102  0.98371329     0.13200
C1135       C  0.09123048  0.70917765  0.89418375     0.19300
C1136       C  0.10580874  0.68616150  0.89712277    -0.18800
C1137       C  0.08844604  0.65646541  0.90731400    -0.11100
C1138       C  0.05601718  0.64916593  0.91496019     0.21500
C1139       C  0.04084617  0.67154764  0.91166127    -0.20400
C1140       C  0.05808233  0.70110371  0.90135749    -0.11300
C1141       C  0.04014270  0.62202729  0.92788607    -0.15400
C1142       C  0.04721378  0.59446662  0.93036345    -0.29300
C1143       C  0.11358238  0.74342516  0.88514068    -0.03600
C1144       C  0.10061027  0.76360257  0.87834628    -0.40100
H1145       H  0.13151215  0.69194271  0.89191451     0.12700
H1146       H  0.10169910  0.64068432  0.90977635     0.12300
H1147       H  0.01619982  0.66695322  0.91752891     0.11700
H1148       H  0.04634356  0.71858136  0.89972110     0.12000
H1149       H  0.02369561  0.62659682  0.93635900     0.14700
H1150       H  0.06235603  0.58838383  0.92180994     0.13500
H1151       H  0.14268584  0.75302664  0.88429398     0.11200
H1152       H  0.07144864  0.75360762  0.87802065     0.13200
C1153       C  0.13418815  0.40702825  0.89261632     0.19300
C1154       C  0.13621266  0.40053991  0.90853623    -0.18800
C1155       C  0.12533132  0.41683766  0.91994187    -0.11100
C1156       C  0.11161574  0.44005241  0.91577652     0.21500
C1157       C  0.10928767  0.44638673  0.89981956    -0.20400
C1158       C  0.12039734  0.43010467  0.88834733    -0.11300
C1159       C  0.09996087  0.45836729  0.92765131    -0.15400
C1160       C  0.09261915  0.44765528  0.94266693    -0.29300
C1161       C  0.15008791  0.39172138  0.88133677    -0.03600
C1162       C  0.14991241  0.39361754  0.86559466    -0.40100
H1163       H  0.14718525  0.38334405  0.91224790     0.12700
H1164       H  0.12873591  0.41171340  0.93197378     0.12300
H1165       H  0.09902835  0.46423649  0.89620284     0.11700
H1166       H  0.11889690  0.43637532  0.87626191     0.12000
H1167       H  0.09515831  0.48008483  0.92366052     0.14700
H1168       H  0.09464814  0.42437675  0.94668718     0.13500
H1169       H  0.16478318  0.37920138  0.88649870     0.11200
H1170       H  0.13405757  0.40379438  0.85966858     0.13200
C1171       C  0.20526120  0.22313669  0.00335396     0.19300
C1172       C  0.21194375  0.25411732  0.99477202    -0.18800
C1173       C  0.24447451  0.28711795  0.99681403    -0.11100
C1174       C  0.27072920  0.28969700  0.00763583     0.21500
C1175       C  0.26326512  0.25916761  0.01671750    -0.20400
C1176       C  0.23093109  0.22610904  0.01456736    -0.11300
C1177       C  0.30663467  0.32325567  0.00942070    -0.15400
C1178       C  0.32367086  0.34583460  0.99745564    -0.29300
C1179       C  0.17027722  0.18878446  0.00113043    -0.03600
C1180       C  0.16648676  0.15559403  0.00368379    -0.40100
H1181       H  0.19208344  0.25266265  0.98636567     0.12700
H1182       H  0.24886237  0.31051147  0.98998604     0.12300
H1183       H  0.28287539  0.26068508  0.02527606     0.11700
H1184       H  0.22590958  0.20315101  0.02185233     0.12000
H1185       H  0.32127157  0.32708531  0.02031974     0.14700
H1186       H  0.31045783  0.34074978  0.98614985     0.13500
H1187       H  0.14678361  0.19104305  0.99747625     0.11200
H1188       H  0.19010514  0.15291077  0.00661914     0.13200
C1189       C  0.79289120  0.76361026  0.99456136     0.19300
C1190       C  0.78938270  0.72910279  0.99707063    -0.18800
C1191       C  0.75672356  0.69717347  0.99357318    -0.11100
C1192       C  0.72693205  0.69913343  0.98730978     0.21500
C1193       C  0.73080837  0.73356964  0.98424992    -0.20400
C1194       C  0.76335525  0.76553111  0.98789202    -0.11300
C1195       C  0.69132153  0.66585029  0.98413530    -0.15400
C1196       C  0.67812082  0.63614434  0.99329037    -0.29300
C1197       C  0.82847844  0.79676404  0.99810904    -0.03600
C1198       C  0.83258616  0.83023314  0.00039987    -0.40100
H1199       H  0.81195911  0.72683533  0.00185303     0.12700
H1200       H  0.75494891  0.67101972  0.99566651     0.12300
H1201       H  0.70836575  0.73574622  0.97924782     0.11700
H1202       H  0.76537667  0.79151762  0.98518070     0.12000
H1203       H  0.67373216  0.66738743  0.97525718     0.14700
H1204       H  0.69396684  0.63589731  0.00322015     0.13500
H1205       H  0.85245149  0.79347751  0.99855172     0.11200
H1206       H  0.80900342  0.83410075  0.00035248     0.13200
C1207       C  0.58068169  0.70608515  0.89022088     0.19300
C1208       C  0.58471479  0.71126921  0.90638911    -0.18800
C1209       C  0.56865970  0.68168997  0.91651634    -0.11100
C1210       C  0.54851271  0.64583763  0.91073165     0.21500
C1211       C  0.54357022  0.64045155  0.89457263    -0.20400
C1212       C  0.55961819  0.67029102  0.88435062    -0.11300
C1213       C  0.53292145  0.61394539  0.92141238    -0.15400
C1214       C  0.54940992  0.61488218  0.93495595    -0.29300
C1215       C  0.59818807  0.73933101  0.88034808    -0.03600
C1216       C  0.59394325  0.74073772  0.86485883    -0.40100
H1217       H  0.60017636  0.73851311  0.91128036     0.12700
H1218       H  0.57185930  0.68713645  0.92889958     0.12300
H1219       H  0.52785240  0.61307864  0.88985038     0.11700
H1220       H  0.55558410  0.66503312  0.87198839     0.12000
H1221       H  0.50894681  0.58879431  0.91770781     0.14700
H1222       H  0.57507444  0.63897011  0.93802692     0.13500
H1223       H  0.61468615  0.76507543  0.88644796     0.11200
H1224       H  0.57896993  0.71606237  0.85799592     0.13200
C1225       C  0.31275120  0.39528594  0.88015420     0.19300
C1226       C  0.31305853  0.37259329  0.89199330    -0.18800
C1227       C  0.34066678  0.38612377  0.90325264    -0.11100
C1228       C  0.36921221  0.42277256  0.90278833     0.21500
C1229       C  0.36969656  0.44504538  0.89054193    -0.20400
C1230       C  0.34195757  0.43147625  0.87928041    -0.11300
C1231       C  0.39668860  0.43952778  0.91557180    -0.15400
C1232       C  0.40270384  0.41976730  0.92624637    -0.29300
C1233       C  0.28056707  0.38062173  0.86955083    -0.03600
C1234       C  0.26988707  0.40194800  0.86223421    -0.40100
H1235       H  0.29094453  0.34462946  0.89294555     0.12700
H1236       H  0.33829660  0.36799916  0.91261327     0.12300
H1237       H  0.39126149  0.47330464  0.88985432     0.11700
H1238       H  0.34334707  0.44956573  0.87005867     0.12000
H1239       H  0.41065345  0.46909170  0.91682357     0.14700
H1240       H  0.38953828  0.39030778  0.92514582     0.13500
H1241       H  0.26268837  0.35114510  0.86908033     0.11200
H1242       H  0.28507646  0.43134174  0.86390547     0.13200
C1243       C  0.72071959  0.00508548  0.99302199     0.19300
C1244       C  0.74993785  0.02016923  0.00357824    -0.18800
C1245       C  0.77925693  0.01379700  0.00190605    -0.11100
C1246       C  0.77978100  0.99169463  0.98970949     0.21500
C1247       C  0.75024682  0.97601962  0.97929232    -0.20400
C1248       C  0.72110642  0.98288811  0.98082278    -0.11300
C1249       C  0.80990571  0.98312456  0.98836507    -0.15400
C1250       C  0.84438710  0.00789954  0.99222309    -0.29300
C1251       C  0.68873271  0.01002961  0.99594514    -0.03600
C1252       C  0.66665884  0.00961602  0.98454517    -0.40100
H1253       H  0.74988950  0.03664967  0.01325761     0.12700
H1254       H  0.80094294  0.02526301  0.01048948     0.12300
H1255       H  0.74968999  0.95835748  0.96999752     0.11700
H1256       H  0.69837043  0.96973352  0.97279747     0.12000
H1257       H  0.80344578  0.95595331  0.98458181     0.14700
H1258       H  0.85065183  0.03543785  0.99529847     0.13500
H1259       H  0.68265091  0.01304696  0.00796513     0.11200
H1260       H  0.67337706  0.00807218  0.97247159     0.13200
C1261       C  0.21844422  0.99622151  0.02601667     0.19300
C1262       C  0.24878611  0.02024880  0.03504310    -0.18800
C1263       C  0.27935964  0.01558875  0.03625102    -0.11100
C1264       C  0.28058877  0.98715193  0.02824270     0.21500
C1265       C  0.24975157  0.96233186  0.01961214    -0.20400
C1266       C  0.21922107  0.96696273  0.01840292    -0.11300
C1267       C  0.31505953  0.98544041  0.02846022    -0.15400
C1268       C  0.32508533  0.97147021  0.01656992    -0.29300
C1269       C  0.18769432  0.00385582  0.02398502    -0.03600
C1270       C  0.15420525  0.97862209  0.01901753    -0.46100
H1271       H  0.24907481  0.04306589  0.04099534     0.12700
H1272       H  0.30264926  0.03504406  0.04303304     0.12300
H1273       H  0.24916737  0.93948735  0.01359742     0.11700
H1274       H  0.19696096  0.94815344  0.01104191     0.12000
H1275       H  0.33462880  0.99994942  0.03770773     0.14700
H1276       H  0.30712698  0.95966541  0.00660397     0.13500
H1277       H  0.19308446  0.03143150  0.02638021     0.11200
H1278       H  0.14787414  0.95064114  0.01711003     0.13200
C1279       C  0.31743279  0.93406667  0.92657471     0.19300
C1280       C  0.29104275  0.94430030  0.92351529    -0.18800
C1281       C  0.26356581  0.92536159  0.91242022    -0.11100
C1282       C  0.26177259  0.89544599  0.90430772     0.21500
C1283       C  0.28798432  0.88510388  0.90747927    -0.20400
C1284       C  0.31552696  0.90415476  0.91843078    -0.11300
C1285       C  0.23174808  0.87270915  0.89329435    -0.15400
C1286       C  0.21189002  0.88462213  0.88557499    -0.29300
C1287       C  0.34449687  0.95251028  0.93928782    -0.03600
C1288       C  0.37702468  0.95382752  0.93951412    -0.40100
H1289       H  0.29143204  0.96670704  0.92987034     0.12700
H1290       H  0.24317315  0.93344986  0.91065250     0.12300
H1291       H  0.28685535  0.86179911  0.90160192     0.11700
H1292       H  0.33437652  0.89439700  0.92089244     0.12000
H1293       H  0.22637035  0.84505327  0.89109712     0.14700
H1294       H  0.21848159  0.91288593  0.88667790     0.13500
H1295       H  0.33657413  0.96342366  0.94906330     0.11200
H1296       H  0.38551508  0.94410175  0.92952224     0.13200
C1297       C  0.57023771  0.87315623  0.88794785     0.19300
C1298       C  0.53672790  0.85435205  0.89581227    -0.18800
C1299       C  0.52966268  0.86938303  0.90894586    -0.11100
C1300       C  0.55590156  0.90405872  0.91448993     0.21500
C1301       C  0.58926115  0.92319464  0.90651244    -0.20400
C1302       C  0.59641099  0.90805405  0.89335885    -0.11300
C1303       C  0.54996723  0.92064903  0.92873883    -0.15400
C1304       C  0.51673699  0.91043813  0.93474592    -0.29300
C1305       C  0.57698367  0.85373015  0.87499617    -0.03600
C1306       C  0.60951029  0.86451595  0.86809939    -0.40100
H1307       H  0.51616062  0.82728054  0.89204582     0.12700
H1308       H  0.50401062  0.85313047  0.91490142     0.12300
H1309       H  0.60999757  0.94994454  0.91052691     0.11700
H1310       H  0.62252221  0.92370461  0.88767971     0.12000
H1311       H  0.57386925  0.94328854  0.93410939     0.14700
H1312       H  0.49224037  0.88961639  0.92903633     0.13500
H1313       H  0.55429218  0.82707386  0.87182833     0.11200
H1314       H  0.63279697  0.89122415  0.87041747     0.13200
C1315       C  0.87692705  0.59441664  0.10502741     0.19300
C1316       C  0.88490757  0.60615420  0.08950652    -0.18800
C1317       C  0.89834667  0.59005371  0.07914368    -0.11100
C1318       C  0.90460284  0.56171453  0.08404416     0.21500
C1319       C  0.89668357  0.54997698  0.09960111    -0.20400
C1320       C  0.88302718  0.56605925  0.10999116    -0.11300
C1321       C  0.91876387  0.54348162  0.07330858    -0.15400
C1322       C  0.93517758  0.55795926  0.05961058    -0.29300
C1323       C  0.85928212  0.61042902  0.11493539    -0.03600
C1324       C  0.85236855  0.60478344  0.13036433    -0.40100
H1325       H  0.87995538  0.62749096  0.08522992     0.12700
H1326       H  0.90277191  0.59950134  0.06724420     0.12300
H1327       H  0.90089030  0.52806974  0.10373003     0.11700
H1328       H  0.87655007  0.55553230  0.12171919     0.12000
H1329       H  0.91721286  0.51820442  0.07715979     0.14700
H1330       H  0.93897691  0.58421872  0.05598037     0.13500
H1331       H  0.85024245  0.62724894  0.10893540     0.11200
H1332       H  0.86291880  0.59026627  0.13706126     0.13200
C1333       C  0.64770870  0.58070237  0.08209140     0.19300
C1334       C  0.67528311  0.61517621  0.08703966    -0.18800
C1335       C  0.69851267  0.61836967  0.09930633    -0.11100
C1336       C  0.69473152  0.58694006  0.10676549     0.21500
C1337       C  0.66681953  0.55251763  0.10196992    -0.20400
C1338       C  0.64348535  0.54933849  0.08979524    -0.11300
C1339       C  0.72165060  0.58877840  0.11834651    -0.15400
C1340       C  0.74254767  0.61852346  0.12701956    -0.29300
C1341       C  0.62674885  0.57784508  0.06777083    -0.03600
C1342       C  0.59377822  0.54886456  0.06487509    -0.40100
H1343       H  0.67951902  0.63963701  0.08110026     0.12700
H1344       H  0.72044199  0.64533653  0.10233810     0.12300
H1345       H  0.66375382  0.52791192  0.10735462     0.11700
H1346       H  0.62351050  0.52216192  0.08596443     0.12000
H1347       H  0.72477103  0.56481184  0.11966133     0.14700
H1348       H  0.73801970  0.64170731  0.12678995     0.13500
H1349       H  0.64002677  0.59878867  0.05892459     0.11200
H1350       H  0.57992847  0.52843055  0.07384217     0.13200
C1351       C  0.64753750  0.03881058  0.33258245     0.19300
C1352       C  0.62961087  0.04792312  0.34398438    -0.18800
C1353       C  0.63725685  0.08401683  0.34574011    -0.11100
C1354       C  0.66341077  0.11174039  0.33620314     0.21500
C1355       C  0.68161929  0.10267930  0.32493315    -0.20400
C1356       C  0.67364537  0.06655589  0.32304684    -0.11300
C1357       C  0.67245407  0.15035070  0.33764243    -0.15400
C1358       C  0.64767800  0.15990999  0.34184081    -0.29300
C1359       C  0.64218687  0.00137027  0.33231090    -0.03600
C1360       C  0.64842241  0.98631118  0.31969306    -0.40100
H1361       H  0.61006103  0.02712957  0.35171359     0.12700
H1362       H  0.62339086  0.09024753  0.35480840     0.12300
H1363       H  0.70208280  0.12364909  0.31754680     0.11700
H1364       H  0.68899799  0.06075582  0.31454200     0.12000
H1365       H  0.69902921  0.17129802  0.33348418     0.14700
H1366       H  0.61997638  0.13902728  0.34467487     0.13500
H1367       H  0.63514178  0.98661786  0.34328626     0.11200
H1368       H  0.65328787  0.99954262  0.30841844     0.13200
C1369       C  0.67747171  0.62445435  0.33745139     0.19300
C1370       C  0.69208034  0.61273925  0.32556311    -0.18800
C1371       C  0.68593226  0.57695465  0.32535904    -0.11100
C1372       C  0.66450893  0.55202202  0.33695751     0.21500
C1373       C  0.64966817  0.56360702  0.34878360    -0.20400
C1374       C  0.65624914  0.59953202  0.34911845    -0.11300
C1375       C  0.65622542  0.51351139  0.33676473    -0.15400
C1376       C  0.68029706  0.50367088  0.33178510    -0.29300
C1377       C  0.68136925  0.66132913  0.33637042    -0.03600
C1378       C  0.67890982  0.67972830  0.34870018    -0.40100
H1379       H  0.70788151  0.63121497  0.31628139     0.12700
H1380       H  0.69702103  0.56856771  0.31587709     0.12300
H1381       H  0.63277763  0.54472659  0.35774906     0.11700
H1382       H  0.64346551  0.60717216  0.35815877     0.12000
H1383       H  0.63080544  0.49307575  0.34204932     0.14700
H1384       H  0.70726929  0.52434895  0.32794122     0.13500
H1385       H  0.68490065  0.67305252  0.32480479     0.11200
H1386       H  0.67724408  0.66936118  0.36041032     0.13200
C1387       C  0.58854310  0.97455140  0.43710537     0.19300
C1388       C  0.60698632  0.99095418  0.42327743    -0.18800
C1389       C  0.62217795  0.97452010  0.41411350    -0.11100
C1390       C  0.61917408  0.94094960  0.41854420     0.21500
C1391       C  0.60176476  0.92512624  0.43267715    -0.20400
C1392       C  0.58671478  0.94176940  0.44192083    -0.11300
C1393       C  0.62943916  0.91966638  0.40779722    -0.15400
C1394       C  0.65212757  0.93472698  0.39561309    -0.29300
C1395       C  0.56753255  0.98978258  0.44488873    -0.03600
C1396       C  0.55646888  0.98359997  0.45981784    -0.40100
H1397       H  0.60835495  0.01592249  0.41919682     0.12700
H1398       H  0.63421182  0.98730027  0.40314085     0.12300
H1399       H  0.59856586  0.89907523  0.43628428     0.11700
H1400       H  0.57193317  0.92781669  0.45231448     0.12000
H1401       H  0.61550352  0.89017468  0.40925630     0.14700
H1402       H  0.66705405  0.96416852  0.39420397     0.13500
H1403       H  0.55974958  0.00615828  0.43777412     0.11200
H1404       H  0.56589901  0.96967700  0.46756592     0.13200
C1405       C  0.54540867  0.63498155  0.44549736     0.19300
C1406       C  0.53224714  0.65841283  0.44104700    -0.18800
C1407       C  0.54886891  0.68379655  0.42904086    -0.11100
C1408       C  0.57925674  0.68637120  0.42111338     0.21500
C1409       C  0.59280445  0.66334069  0.42575151    -0.20400
C1410       C  0.57618227  0.63796509  0.43778745    -0.11300
C1411       C  0.59650436  0.71108198  0.40750485    -0.15400
C1412       C  0.59070585  0.73874005  0.40344462    -0.29300
C1413       C  0.52370392  0.60534192  0.45687177    -0.03600
C1414       C  0.53528695  0.58451822  0.46415406    -0.40100
H1415       H  0.50828135  0.65639940  0.44661776     0.12700
H1416       H  0.53687390  0.70026922  0.42575291     0.12300
H1417       H  0.61598136  0.66445671  0.41981251     0.11700
H1418       H  0.58670567  0.61989142  0.44053120     0.12000
H1419       H  0.61543089  0.70649901  0.40059182     0.14700
H1420       H  0.57336714  0.74526797  0.41045148     0.13500
H1421       H  0.49580186  0.59928521  0.45890372     0.11200
H1422       H  0.56356922  0.59118254  0.46327687     0.13200
C1423       C  0.71183141  0.73111960  0.24842376     0.19300
C1424       C  0.72538972  0.74643178  0.23373667    -0.18800
C1425       C  0.74139811  0.73168177  0.22395659    -0.11100
C1426       C  0.74438194  0.70132706  0.22876871     0.21500
C1427       C  0.72997740  0.68552563  0.24327101    -0.20400
C1428       C  0.71391203  0.70012830  0.25298717    -0.11300
C1429       C  0.76530322  0.68743309  0.21991291    -0.15400
C1430       C  0.77478263  0.69459904  0.20482674    -0.29300
C1431       C  0.70020044  0.75064589  0.25947213    -0.03600
C1432       C  0.67921526  0.73450947  0.27201499    -0.40100
H1433       H  0.72467925  0.77063246  0.23003265     0.12700
H1434       H  0.75285633  0.74525292  0.21303791     0.12300
H1435       H  0.73226321  0.66242774  0.24735865     0.11700
H1436       H  0.70504450  0.68812330  0.26438354     0.12000
H1437       H  0.77371139  0.67048970  0.22623922     0.14700
H1438       H  0.76491087  0.70932834  0.19784829     0.13500
H1439       H  0.71162341  0.77988373  0.25783787     0.11200
H1440       H  0.66654555  0.70514723  0.27350333     0.13200
C1441       C  0.37566983  0.05154335  0.34286695     0.19300
C1442       C  0.37983152  0.08089919  0.33359228    -0.18800
C1443       C  0.41456566  0.11107289  0.33099220    -0.11100
C1444       C  0.44577630  0.11248426  0.33764483     0.21500
C1445       C  0.44139912  0.08341809  0.34706937    -0.20400
C1446       C  0.40674702  0.05351329  0.34978254    -0.11300
C1447       C  0.48335536  0.14340182  0.33500282    -0.15400
C1448       C  0.49093151  0.17773014  0.33186282    -0.29300
C1449       C  0.33985807  0.01779655  0.34516493    -0.03600
C1450       C  0.31286510  0.00511726  0.33451206    -0.40100
H1451       H  0.35641323  0.08068632  0.32832197     0.12700
H1452       H  0.41688236  0.13275734  0.32351688     0.12300
H1453       H  0.46493091  0.08385783  0.35238331     0.11700
H1454       H  0.40433045  0.03134990  0.35699672     0.12000
H1455       H  0.50591520  0.13841731  0.33718649     0.14700
H1456       H  0.46900967  0.18408583  0.33100925     0.13500
H1457       H  0.33738546  0.00054203  0.35501554     0.11200
H1458       H  0.31598762  0.02062660  0.32399107     0.13200
C1459       C  0.95669079  0.60457224  0.33949182     0.19300
C1460       C  0.94837471  0.57452534  0.34907293    -0.18800
C1461       C  0.91233719  0.54583669  0.35035523    -0.11100
C1462       C  0.88397580  0.54728276  0.34232620     0.21500
C1463       C  0.89223417  0.57777037  0.33307893    -0.20400
C1464       C  0.92824115  0.60601121  0.33155465    -0.11300
C1465       C  0.84550842  0.51755402  0.34328277    -0.15400
C1466       C  0.83631993  0.48220290  0.34400011    -0.29300
C1467       C  0.99444908  0.63585245  0.33900789    -0.03600
C1468       C  0.00821955  0.65626143  0.32614443    -0.40100
H1469       H  0.96978604  0.57329618  0.35555799     0.12700
H1470       H  0.90660985  0.52298117  0.35785214     0.12300
H1471       H  0.87076782  0.57958609  0.32690638     0.11700
H1472       H  0.93361416  0.62946101  0.32452391     0.12000
H1473       H  0.82422790  0.52462891  0.34153564     0.14700
H1474       H  0.85750687  0.47468867  0.34423721     0.13500
H1475       H  0.01030071  0.64342902  0.34971917     0.11200
H1476       H  0.99299272  0.64753125  0.31528218     0.13200
C1477       C  0.05493829  0.61959835  0.43936710     0.19300
C1478       C  0.09082792  0.64559172  0.43530863    -0.18800
C1479       C  0.09772516  0.67132337  0.42366758    -0.11100
C1480       C  0.06872122  0.67176956  0.41571783     0.21500
C1481       C  0.03273916  0.64621600  0.41998379    -0.20400
C1482       C  0.02582408  0.62044284  0.43170795    -0.11300
C1483       C  0.07502634  0.69568606  0.40192498    -0.15400
C1484       C  0.10723917  0.72589284  0.39890299    -0.29300
C1485       C  0.04957293  0.59033818  0.45052302    -0.03600
C1486       C  0.01811352  0.56801033  0.45795110    -0.40100
H1487       H  0.11377769  0.64532945  0.44086823     0.12700
H1488       H  0.12586086  0.68952180  0.42050435     0.12300
H1489       H  0.00986745  0.64554657  0.41392366     0.11700
H1490       H  0.99775547  0.60041063  0.43421199     0.12000
H1491       H  0.05286509  0.68697143  0.39356059     0.14700
H1492       H  0.12926087  0.73579759  0.40734884     0.13500
H1493       H  0.07306105  0.58685352  0.45274029     0.11200
H1494       H  0.99475730  0.57206236  0.45688059     0.13200
C1495       C  0.39346956  0.93605407  0.43174259     0.19300
C1496       C  0.37655142  0.89983416  0.42625461    -0.18800
C1497       C  0.35050804  0.88794741  0.41429137    -0.11100
C1498       C  0.34064366  0.91214493  0.40743846     0.21500
C1499       C  0.35754276  0.94838163  0.41294030    -0.20400
C1500       C  0.38359860  0.96026703  0.42492470    -0.11300
C1501       C  0.31364873  0.90130633  0.39439430    -0.15400
C1502       C  0.29036661  0.86651528  0.38996576    -0.29300
C1503       C  0.42298485  0.94768435  0.44369572    -0.03600
C1504       C  0.43789439  0.97929523  0.45189509    -0.40100
H1505       H  0.38390263  0.88064520  0.43111468     0.12700
H1506       H  0.33896993  0.86004854  0.41030799     0.12300
H1507       H  0.35076067  0.96777148  0.40784646     0.11700
H1508       H  0.39645894  0.98859934  0.42846562     0.12000
H1509       H  0.31170834  0.92320033  0.38860180     0.14700
H1510       H  0.28999857  0.84379436  0.39601616     0.13500
H1511       H  0.43322850  0.92896051  0.44582181     0.11200
H1512       H  0.42677426  0.99749328  0.45085890     0.13200
C1513       C  0.93621949  0.73128684  0.22782364     0.19300
C1514       C  0.95629663  0.76782870  0.23272982    -0.18800
C1515       C  0.98076805  0.77797827  0.24519148    -0.11100
C1516       C  0.98581801  0.75162953  0.25317501     0.21500
C1517       C  0.96608486  0.71507851  0.24809375    -0.20400
C1518       C  0.94151493  0.70492062  0.23559423    -0.11300
C1519       C  0.01134827  0.76077312  0.26667794    -0.15400
C1520       C  0.03308652  0.79484653  0.27225253    -0.29300
C1521       C  0.90759489  0.72183071  0.21573320    -0.03600
C1522       C  0.88926774  0.68948768  0.20823017    -0.40100
H1523       H  0.95253312  0.78868008  0.22705681     0.12700
H1524       H  0.99503616  0.80644835  0.24848508     0.12300
H1525       H  0.96932924  0.69412030  0.25395872     0.11700
H1526       H  0.92604274  0.67633505  0.23244041     0.12000
H1527       H  0.01345577  0.73839242  0.27188864     0.14700
H1528       H  0.03288338  0.81818314  0.26713120     0.13500
H1529       H  0.90002530  0.74251538  0.21327012     0.11200
H1530       H  0.89736796  0.66890101  0.20944522     0.13200
C1531       C  0.93498817  0.36106667  0.09173520     0.19300
C1532       C  0.91972241  0.36016136  0.10638242    -0.18800
C1533       C  0.90248304  0.32757831  0.11506310    -0.11100
C1534       C  0.89938916  0.29504328  0.10902657     0.21500
C1535       C  0.91465056  0.29609848  0.09440866    -0.20400
C1536       C  0.93242462  0.32861701  0.08593153    -0.11300
C1537       C  0.87750698  0.25883035  0.11673585    -0.15400
C1538       C  0.87234108  0.25372676  0.13222239    -0.29300
C1539       C  0.95015199  0.39454274  0.08179541    -0.03600
C1540       C  0.97832045  0.40320679  0.07206512    -0.40100
H1541       H  0.92070036  0.38455287  0.11100313     0.12700
H1542       H  0.89023076  0.32755626  0.12612636     0.12300
H1543       H  0.91220907  0.27140065  0.08936644     0.11700
H1544       H  0.94273877  0.32787970  0.07448206     0.12000
H1545       H  0.86560445  0.23485998  0.10922665     0.14700
H1546       H  0.88613979  0.27683918  0.14008423     0.13500
H1547       H  0.93583399  0.40999183  0.08145185     0.11200
H1548       H  0.99269002  0.38784057  0.07291703     0.13200
C1549       C  0.70986259  0.09493643  0.11045007     0.19300
C1550       C  0.70320188  0.06437723  0.10140345    -0.18800
C1551       C  0.67529101  0.04991582  0.09016578    -0.11100
C1552       C  0.65321403  0.06584110  0.08757348     0.21500
C1553       C  0.65910505  0.09564189  0.09695340    -0.20400
C1554       C  0.68693101  0.11005113  0.10819761    -0.11300
C1555       C  0.62450052  0.05326402  0.07509765    -0.15400
C1556       C  0.62085524  0.03038033  0.06332294    -0.29300
C1557       C  0.74197524  0.11092553  0.12138248    -0.03600
C1558       C  0.75225509  0.14091526  0.13028138    -0.40100
H1559       H  0.72008085  0.05186162  0.10286791     0.12700
H1560       H  0.67145809  0.02642543  0.08357411     0.12300
H1561       H  0.64250432  0.10843128  0.09536790     0.11700
H1562       H  0.69039263  0.13335686  0.11480178     0.12000
H1563       H  0.60707289  0.06548829  0.07502382     0.14700
H1564       H  0.63873913  0.01883663  0.06264396     0.13500
H1565       H  0.75944636  0.09874071  0.12141650     0.11200
H1566       H  0.73682339  0.15513298  0.13014867     0.13200
C1567       C  0.74762620  0.97703709  0.24552528     0.19300
C1568       C  0.73010893  0.98039344  0.23219398    -0.18800
C1569       C  0.74891104  0.00962544  0.22181960    -0.11100
C1570       C  0.78522348  0.03652175  0.22493473     0.21500
C1571       C  0.80261833  0.03292936  0.23822685    -0.20400
C1572       C  0.78423882  0.00334865  0.24830972    -0.11300
C1573       C  0.80530974  0.07029801  0.21552092    -0.15400
C1574       C  0.80241175  0.07271870  0.19992945    -0.29300
C1575       C  0.72662338  0.94834307  0.25726846    -0.03600
C1576       C  0.74100440  0.93082971  0.26514262    -0.40100
H1577       H  0.70171214  0.96065055  0.22994010     0.12700
H1578       H  0.73459894  0.01202466  0.21182078     0.12300
H1579       H  0.83050438  0.05346520  0.24094515     0.11700
H1580       H  0.79818854  0.00196990  0.25866233     0.12000
H1581       H  0.82518646  0.09429993  0.22188681     0.14700
H1582       H  0.78251171  0.04899818  0.19347032     0.13500
H1583       H  0.69864602  0.94165319  0.25957846     0.11200
H1584       H  0.76766160  0.93486432  0.26192696     0.13200
C1585       C  0.41471059  0.32148004  0.07525984     0.19300
C1586       C  0.38210195  0.30969437  0.08354812    -0.18800
C1587       C  0.37423043  0.28719726  0.09662316    -0.11100
C1588       C  0.39890185  0.27586805  0.10156398     0.21500
C1589       C  0.43132047  0.28749729  0.09315391    -0.20400
C1590       C  0.43906346  0.30975634  0.08011596    -0.11300
C1591       C  0.39156611  0.25015129  0.11464597    -0.15400
C1592       C  0.36034687  0.23300018  0.12289678    -0.29300
C1593       C  0.42272553  0.34602281  0.06166234    -0.03600
C1594       C  0.45710074  0.36987994  0.05731863    -0.40100
H1595       H  0.36281305  0.31819920  0.07997438     0.12700
H1596       H  0.34882211  0.27877634  0.10264598     0.12300
H1597       H  0.45055912  0.27873612  0.09650357     0.11700
H1598       H  0.46385804  0.31709464  0.07373993     0.12000
H1599       H  0.41253374  0.24291084  0.11701284     0.14700
H1600       H  0.33899463  0.23996044  0.12156973     0.13500
H1601       H  0.40001104  0.34631450  0.05580321     0.11200
H1602       H  0.48001468  0.37184742  0.06388524     0.13200
C1603       C  0.43326460  0.08293529  0.08631902     0.19300
C1604       C  0.39753891  0.06460939  0.09228447    -0.18800
C1605       C  0.38689294  0.08026440  0.10408611    -0.11100
C1606       C  0.41191595  0.11479563  0.11019318     0.21500
C1607       C  0.44787725  0.13263200  0.10452612    -0.20400
C1608       C  0.45850906  0.11701570  0.09273583    -0.11300
C1609       C  0.40094881  0.13530666  0.12093947    -0.15400
C1610       C  0.36884183  0.12123648  0.12856972    -0.29300
C1611       C  0.44217229  0.06641842  0.07288341    -0.03600
C1612       C  0.47627463  0.07707744  0.06779785    -0.40100
H1613       H  0.37745311  0.03839607  0.08752009     0.12700
H1614       H  0.35873918  0.06585788  0.10784194     0.12300
H1615       H  0.46761174  0.15945543  0.10887898     0.11700
H1616       H  0.48607741  0.13252614  0.08836578     0.12000
H1617       H  0.41972946  0.16455032  0.12193560     0.14700
H1618       H  0.35012374  0.09202099  0.12881264     0.13500
H1619       H  0.41925671  0.04365417  0.06704711     0.11200
H1620       H  0.49998001  0.09822826  0.07382381     0.13200
C1621       C  0.26182886  0.04789998  0.22683645     0.19300
C1622       C  0.22636859  0.02235371  0.23158497    -0.18800
C1623       C  0.22053170  0.99530370  0.24241018    -0.11100
C1624       C  0.25020829  0.99323780  0.24881043     0.21500
C1625       C  0.28571749  0.01877030  0.24406493    -0.20400
C1626       C  0.29155847  0.04577443  0.23315069    -0.11300
C1627       C  0.24518057  0.96749079  0.26163039    -0.15400
C1628       C  0.21363774  0.93620073  0.26402596    -0.29300
C1629       C  0.26656491  0.07752003  0.21608136    -0.03600
C1630       C  0.29646578  0.09708340  0.20731281    -0.40100
H1631       H  0.20304583  0.02369872  0.22708847     0.12700
H1632       H  0.19282860  0.97713366  0.24617993     0.12300
H1633       H  0.30906684  0.01825859  0.24905549     0.11700
H1634       H  0.31939870  0.06559403  0.23017401     0.12000
H1635       H  0.26753032  0.97569631  0.26986135     0.14700
H1636       H  0.19158186  0.92704564  0.25560575     0.13500
H1637       H  0.24390798  0.08280160  0.21498323     0.11200
H1638       H  0.31838185  0.09068057  0.20735952     0.13200
C1639       C  0.44086243  0.32173864  0.35431138     0.19300
C1640       C  0.40819369  0.29448635  0.34757679    -0.18800
C1641       C  0.37669387  0.29770254  0.34752210    -0.11100
C1642       C  0.37700543  0.32814206  0.35441012     0.21500
C1643       C  0.40923452  0.35472686  0.36166031    -0.20400
C1644       C  0.44092720  0.35177333  0.36152917    -0.11300
C1645       C  0.34418924  0.33279094  0.35431230    -0.15400
C1646       C  0.32018297  0.32151158  0.34239245    -0.29300
C1647       C  0.47395824  0.31756085  0.35356943    -0.03600
C1648       C  0.50860273  0.34575221  0.35408792    -0.40100
H1649       H  0.40717278  0.27081288  0.34211351     0.12700
H1650       H  0.35206426  0.27617708  0.34221208     0.12300
H1651       H  0.41005618  0.37819339  0.36723471     0.11700
H1652       H  0.46518908  0.37281832  0.36723245     0.12000
H1653       H  0.34140903  0.34863396  0.36366231     0.14700
H1654       H  0.32463355  0.30858175  0.33233563     0.13500
H1655       H  0.46955109  0.29034244  0.35113558     0.11200
H1656       H  0.51375300  0.37353670  0.35532681     0.13200
C1657       C  0.88654820  0.34706148  0.31254579     0.19300
C1658       C  0.91977064  0.37786216  0.31686227    -0.18800
C1659       C  0.95276758  0.37764237  0.31576391    -0.11100
C1660       C  0.95339835  0.34665593  0.31010698     0.21500
C1661       C  0.92043239  0.31638753  0.30516509    -0.20400
C1662       C  0.88726661  0.31639673  0.30647452    -0.11300
C1663       C  0.98787490  0.34502857  0.30937798    -0.15400
C1664       C  0.01456673  0.36117690  0.32012095    -0.29300
C1665       C  0.85214627  0.34848842  0.31454041    -0.03600
C1666       C  0.81859203  0.31894711  0.31635408    -0.40100
H1667       H  0.92014477  0.40206438  0.32137232     0.12700
H1668       H  0.97776000  0.40182210  0.31927279     0.12300
H1669       H  0.92024538  0.29234085  0.30058058     0.11700
H1670       H  0.86242829  0.29253805  0.30262289     0.12000
H1671       H  0.98973296  0.32710972  0.30076446     0.14700
H1672       H  0.01119223  0.37605491  0.32970825     0.13500
H1673       H  0.85514635  0.37550092  0.31586751     0.11200
H1674       H  0.81503172  0.29163083  0.31605133     0.13200
C1675       C  0.04657408  0.43286029  0.43828100     0.19300
C1676       C  0.02974335  0.41684469  0.42407319    -0.18800
C1677       C  0.04533116  0.40246502  0.41396086    -0.11100
C1678       C  0.07837093  0.40363259  0.41780131     0.21500
C1679       C  0.09500992  0.41913745  0.43213229    -0.20400
C1680       C  0.07926000  0.43346851  0.44232630    -0.11300
C1681       C  0.09775406  0.39251112  0.40639857    -0.15400
C1682       C  0.08034230  0.36880161  0.39469732    -0.29300
C1683       C  0.03086503  0.45162264  0.44756907    -0.03600
C1684       C  0.03943573  0.46281014  0.46246984    -0.40100
H1685       H  0.00486933  0.41643398  0.42053100     0.12700
H1686       H  0.03217018  0.39210735  0.40283474     0.12300
H1687       H  0.12074463  0.42095650  0.43528283     0.11700
H1688       H  0.09361039  0.44629186  0.45298230     0.12000
H1689       H  0.12735667  0.40589137  0.40713093     0.14700
H1690       H  0.05072644  0.35442619  0.39417719     0.13500
H1691       H  0.01121400  0.45703308  0.44166267     0.11200
H1692       H  0.05703388  0.45592301  0.46912227     0.13200
C1693       C  0.37032792  0.46483974  0.44229858     0.19300
C1694       C  0.35411236  0.48310849  0.43501803    -0.18800
C1695       C  0.33020012  0.46733239  0.42244143    -0.11100
C1696       C  0.32173497  0.43261035  0.41683929     0.21500
C1697       C  0.33754816  0.41409799  0.42422069    -0.20400
C1698       C  0.36151491  0.42989601  0.43680890    -0.11300
C1699       C  0.29794977  0.41549675  0.40297729    -0.15400
C1700       C  0.27339600  0.42459036  0.39773346    -0.29300
C1701       C  0.39875141  0.48493004  0.45441492    -0.03600
C1702       C  0.41548755  0.47068987  0.46301569    -0.40100
H1703       H  0.36073800  0.51024757  0.43881219     0.12700
H1704       H  0.31950463  0.48306329  0.41687968     0.12300
H1705       H  0.33171678  0.38743428  0.42008641     0.11700
H1706       H  0.37376029  0.41497685  0.44177055     0.12000
H1707       H  0.29971166  0.39342876  0.39723534     0.14700
H1708       H  0.26927963  0.44473392  0.40388389     0.13500
H1709       H  0.40770428  0.51381366  0.45581546     0.11200
H1710       H  0.40593257  0.44164343  0.46268370     0.13200
C1711       C  0.02467598  0.22561129  0.24360848     0.19300
C1712       C  0.02886151  0.23000391  0.22738915    -0.18800
C1713       C  0.99810449  0.21585460  0.21755374    -0.11100
C1714       C  0.96260056  0.19676242  0.22384818     0.21500
C1715       C  0.95878579  0.19120069  0.24000393    -0.20400
C1716       C  0.98926347  0.20514240  0.24972810    -0.11300
C1717       C  0.92839463  0.18140839  0.21442711    -0.15400
C1718       C  0.92584252  0.18185829  0.19875402    -0.29300
C1719       C  0.05701561  0.24371962  0.25414692    -0.03600
C1720       C  0.05446685  0.25759072  0.26789996    -0.40100
H1721       H  0.05589023  0.24536447  0.22237464     0.12700
H1722       H  0.00239143  0.22040299  0.20517203     0.12300
H1723       H  0.93193032  0.17602642  0.24520855     0.11700
H1724       H  0.98496624  0.19999375  0.26210334     0.12000
H1725       H  0.90304721  0.16806542  0.22099535     0.14700
H1726       H  0.95012881  0.19603934  0.19165788     0.13500
H1727       H  0.08334409  0.24817053  0.25014946     0.11200
H1728       H  0.02876315  0.25601658  0.27101757     0.13200
C1729       C  0.25452894  0.27746770  0.24461489     0.19300
C1730       C  0.23650305  0.26083227  0.23064672    -0.18800
C1731       C  0.24984815  0.24344034  0.22087042    -0.11100
C1732       C  0.28149490  0.24206726  0.22496347     0.21500
C1733       C  0.29986653  0.25933422  0.23875912    -0.20400
C1734       C  0.28667996  0.27681901  0.24846084    -0.11300
C1735       C  0.29427197  0.21999889  0.21618831    -0.15400
C1736       C  0.28474427  0.20803390  0.20143049    -0.29300
C1737       C  0.23695174  0.29124263  0.25574964    -0.03600
C1738       C  0.25527448  0.31495562  0.26734818    -0.40100
H1739       H  0.21138986  0.26037221  0.22750820     0.12700
H1740       H  0.23433576  0.22976008  0.21054928     0.12300
H1741       H  0.32400722  0.25831999  0.24232011     0.11700
H1742       H  0.30084982  0.28807676  0.25932296     0.12000
H1743       H  0.31242809  0.21285616  0.22232193     0.14700
H1744       H  0.26878417  0.21665985  0.19456693     0.13500
H1745       H  0.20750136  0.27949717  0.25498166     0.11200
H1746       H  0.28479454  0.32773513  0.26798751     0.13200
loop_ 
_geom_bond_atom_site_label_1 
_geom_bond_atom_site_label_2 
_geom_bond_distance 
_geom_bond_site_symmetry_2 
_ccdc_geom_bond_type 
O1           Mg3   2.137       .  S
O1           Mg9   2.143       .  S
O1           C36   1.235       .  S
C2           O15   1.237       .  S
C2           O39   1.271       .  A
C2           H41   1.081       .  S
Mg3          O32   2.154       .  S
Mg3          O47   2.305       .  S
Mg3          O43   2.248       .  S
Mg3          O14   2.293       .  S
O4          Mg46   2.155       .  S
O4          Mg29   2.165       .  S
O4           C25   1.237       .  S
O5           C36   1.270       .  A
O5          Mg29   2.300       .  S
C6            O8   1.272       .  A
C6           O20   1.278       .  A
C6         C1700   1.478       .  S
O7           C35   1.272       .  A
O7           Mg9   2.302       .  S
O8          Mg40   2.263       .  S
Mg9          O15   2.153       .  S
Mg9          O23   2.291       .  S
Mg9          O11   2.275       .  S
C10          O48   1.275       .  A
C10          O16   1.276       .  A
C10        C1646   1.482       .  S
O11          C18   1.272       .  A
H12          C25   1.081       .  S
C13          O27   1.235       .  S
C13          O28   1.270       .  A
C13          H38   1.081       .  S
O14          C37   1.269       .  A
O15         Mg29   2.169       .  S
O16         Mg46   2.315       .  S
C17          O30   1.272       .  A
C17          O22   1.278       .  A
C17        C1738   1.480       .  S
C18          O45   1.277       .  A
C18        C1720   1.474       .  S
Mg19         O26   2.152       .  S
Mg19         O27   2.154       .  S
Mg19         O20   2.318       .  S
Mg19         O21   2.309       .  S
Mg19         O48   2.290       .  S
O21          C25   1.272       .  A
O22         Mg29   2.328       .  S
O23          C42   1.273       .  A
O24          C44   1.278       .  A
O24         Mg40   2.332       .  S
O26         Mg40   2.168       .  S
O26          C37   1.236       .  S
O27         Mg46   2.152       .  S
O28         Mg40   2.299       .  S
Mg29         O45   2.311       .  S
O30         Mg46   2.261       .  S
H31          C36   1.081       .  S
O32         Mg40   2.146       .  S
O32          C35   1.237       .  S
H33          C35   1.081       .  S
H34          C37   1.081       .  S
O39         Mg46   2.299       .  S
C42          O47   1.273       .  A
C42        C1664   1.480       .  S
O43          C44   1.270       .  A
C44        C1682   1.479       .  S
C49        C1630   1.489       .  S
C49          C50   1.402       .  A
C49          C54   1.415       .  A
C50          H69   1.084       .  S
C50          C51   1.403       .  A
C51        C1736   1.494       .  S
C51          C52   1.418       .  A
C52          C53   1.423       .  A
C52          C59   1.407       .  A
C53          C54   1.420       .  A
C53          C58   1.423       .  A
C54          C55   1.408       .  A
C55          H65   1.081       .  S
C55          C56   1.391       .  A
C56          H66   1.082       .  S
C56          C57   1.403       .  A
C57          C58   1.424       .  A
C57          C64   1.414       .  A
C58          C61   1.421       .  A
C59          H67   1.081       .  S
C59          C60   1.393       .  A
C60          H68   1.082       .  S
C60          C61   1.405       .  A
C61          C62   1.415       .  A
C62        C1592   1.488       .  S
C62          C63   1.399       .  A
C63          H70   1.085       .  S
C63          C64   1.396       .  A
C64        C1610   1.491       .  S
C71        C1574   1.504       .  S
C71          C72   1.402       .  A
C71          C76   1.422       .  A
C72          H91   1.083       .  S
C72          C73   1.399       .  A
C73        C1718   1.499       .  S
C73          C74   1.417       .  A
C74          C75   1.425       .  A
C74          C81   1.406       .  A
C75          C76   1.426       .  A
C75          C80   1.428       .  A
C76          C77   1.408       .  A
C77          H87   1.081       .  S
C77          C78   1.397       .  A
C78          H88   1.082       .  S
C78          C79   1.406       .  A
C79          C80   1.422       .  A
C79          C86   1.419       .  A
C80          C83   1.424       .  A
C81          H89   1.081       .  S
C81          C82   1.393       .  A
C82          H90   1.082       .  S
C82          C83   1.406       .  A
C83          C84   1.420       .  A
C84        C1538   1.498       .  S
C84          C85   1.403       .  A
C85          H92   1.085       .  S
C85          C86   1.400       .  A
C86        C1558   1.490       .  S
O93         Mg95   2.153       .  S
O93        Mg101   2.162       .  S
O93         C128   1.236       .  S
C94         O107   1.236       .  S
C94         O131   1.271       .  A
C94         H133   1.081       .  S
Mg95        O124   2.151       .  S
Mg95        O139   2.301       .  S
Mg95        O135   2.272       .  S
Mg95        O106   2.298       .  S
O96        Mg138   2.155       .  S
O96        Mg121   2.150       .  S
O96         C117   1.236       .  S
O97         C128   1.270       .  A
O97        Mg121   2.299       .  S
C98         O100   1.271       .  A
C98         O112   1.276       .  A
C98        C1520   1.478       .  S
O99         C127   1.269       .  A
O99        Mg101   2.299       .  S
O100       Mg132   2.260       .  S
Mg101       O107   2.149       .  S
Mg101       O115   2.273       .  S
Mg101       O103   2.311       .  S
C102        O140   1.271       .  A
C102        O108   1.277       .  A
C102       C1468   1.473       .  S
O103        C110   1.276       .  A
H104        C117   1.081       .  S
C105        O119   1.235       .  S
C105        O120   1.269       .  A
C105        H130   1.081       .  S
O106        C129   1.270       .  A
O107       Mg121   2.159       .  S
O108       Mg138   2.308       .  S
C109        O122   1.274       .  A
C109        O114   1.275       .  A
C109       C1484   1.479       .  S
C110        O137   1.273       .  A
C110       C1502   1.484       .  S
Mg111       O118   2.138       .  S
Mg111       O119   2.163       .  S
Mg111       O112   2.314       .  S
Mg111       O113   2.298       .  S
Mg111       O140   2.251       .  S
O113        C117   1.270       .  A
O114       Mg121   2.307       .  S
O115        C134   1.274       .  A
O116        C136   1.273       .  A
O116       Mg132   2.295       .  S
O118       Mg132   2.159       .  S
O118        C129   1.236       .  S
O119       Mg138   2.150       .  S
O120       Mg132   2.292       .  S
Mg121       O137   2.279       .  S
O122       Mg138   2.279       .  S
H123        C128   1.081       .  S
O124       Mg132   2.141       .  S
O124        C127   1.235       .  S
H125        C127   1.081       .  S
H126        C129   1.081       .  S
O131       Mg138   2.301       .  S
C134        O139   1.274       .  A
C134       C1450   1.477   1_565  S
O135        C136   1.273       .  A
C136       C1628   1.475       .  S
O141       Mg143   2.146       .  S
O141       Mg149   2.157       .  S
O141        C176   1.234       .  S
C142        O155   1.236       .  S
C142        O179   1.269       .  A
C142        H181   1.081       .  S
Mg143       O172   2.155       .  S
Mg143       O187   2.291       .  S
Mg143       O183   2.257       .  S
Mg143       O154   2.289       .  S
O144       Mg186   2.153       .  S
O144       Mg169   2.151       .  S
O144        C165   1.237       .  S
O145        C176   1.268       .  A
O145       Mg169   2.296       .  S
C146        O148   1.275       .  A
C146        O160   1.277       .  A
C146       C1576   1.478       .  S
O147        C175   1.271       .  A
O147       Mg149   2.303       .  S
O148       Mg180   2.283       .  S
Mg149       O155   2.138       .  S
Mg149       O163   2.267       .  S
Mg149       O151   2.313       .  S
C150        O188   1.272       .  A
C150        O156   1.273       .  A
C150       C1360   1.474       .  S
O151        C158   1.277       .  A
H152        C165   1.081       .  S
C153        O167   1.234       .  S
C153        O168   1.268       .  A
C153        H178   1.081       .  S
O154        C177   1.269       .  A
O155       Mg169   2.165       .  S
O156       Mg186   2.279       .  S
C157        O170   1.270       .  A
C157        O162   1.277       .  A
C157       C1394   1.478       .  S
C158        O185   1.274       .  A
C158       C1412   1.483       .  S
Mg159       O166   2.135       .  S
Mg159       O167   2.158       .  S
Mg159       O160   2.310       .  S
Mg159       O161   2.305       .  S
Mg159       O188   2.273       .  S
O161        C165   1.272       .  A
O162       Mg169   2.324       .  S
O163        C182   1.271       .  A
O164        C184   1.277       .  A
O164       Mg180   2.317       .  S
O166       Mg180   2.169       .  S
O166        C177   1.236       .  S
O167       Mg186   2.140       .  S
O168       Mg180   2.290       .  S
Mg169       O185   2.279       .  S
O170       Mg186   2.254       .  S
H171        C176   1.081       .  S
O172       Mg180   2.152       .  S
O172        C175   1.237       .  S
H173        C175   1.081       .  S
H174        C177   1.081       .  S
O179       Mg186   2.290       .  S
C182        O187   1.274       .  A
C182       C1378   1.476       .  S
O183        C184   1.271       .  A
C184       C1432   1.477       .  S
C189       C1522   1.492       .  S
C189        C190   1.403       .  A
C189        C194   1.419       .  A
C190        H209   1.084       .  S
C190        C191   1.398       .  A
C191       C1430   1.492       .  S
C191        C192   1.413       .  A
C192        C193   1.424       .  A
C192        C199   1.404       .  A
C193        C194   1.421       .  A
C193        C198   1.424       .  A
C194        C195   1.408       .  A
C195        H205   1.082       .  S
C195        C196   1.398       .  A
C196        H206   1.082       .  S
C196        C197   1.407       .  A
C197        C198   1.424       .  A
C197        C204   1.423       .  A
C198        C201   1.419       .  A
C199        H207   1.082       .  S
C199        C200   1.388       .  A
C200        H208   1.082       .  S
C200        C201   1.406       .  A
C201        C202   1.410       .  A
C202       C1340   1.485       .  S
C202        C203   1.398       .  A
C203        H210   1.084       .  S
C203        C204   1.403       .  A
C204       C1324   1.500       .  S
O211       Mg213   2.155   1_554  S
O211       Mg219   2.158   1_545  S
O211        C246   1.236       .  S
C212        O225   1.235       .  S
C212        O249   1.270       .  A
C212        H251   1.081       .  S
Mg213       O242   2.150   1_545  S
Mg213       O257   2.298   1_546  S
Mg213       O253   2.281   1_545  S
Mg213       O224   2.299       .  S
O214       Mg256   2.160   1_545  S
O214       Mg239   2.152       .  S
O214        C235   1.236       .  S
O215        C246   1.271       .  A
O215       Mg239   2.304       .  S
C216        O218   1.270       .  A
C216        O230   1.275       .  A
C216       C1304   1.478       .  S
O217        C245   1.270       .  A
O217       Mg219   2.300       .  S
O218       Mg250   2.262       .  S
Mg219       O225   2.159       .  S
Mg219       O233   2.286       .  S
Mg219       O221   2.290   1_565  S
C220        O258   1.270       .  A
C220        O226   1.278   1_556  A
C220       C1252   1.478       .  S
O221        C228   1.275       .  A
H222        C235   1.081       .  S
C223        O237   1.235       .  S
C223        O238   1.269       .  A
C223        H248   1.081   1_556  S
O224        C247   1.270       .  A
O225       Mg239   2.168   1_565  S
O226       Mg256   2.319   1_545  S
C227        O240   1.274       .  A
C227        O232   1.279       .  A
C227       C1556   1.488       .  S
C228        O255   1.273       .  A
C228       C1612   1.479       .  S
Mg229       O236   2.141       .  S
Mg229       O237   2.165       .  S
Mg229       O230   2.307       .  S
Mg229       O231   2.296   1_565  S
Mg229       O258   2.252   1_565  S
O231        C235   1.270   1_556  A
O232       Mg239   2.334       .  S
O233        C252   1.274       .  A
O234        C254   1.272       .  A
O234       Mg250   2.292       .  S
O236       Mg250   2.158       .  S
O236        C247   1.236   1_565  S
O237       Mg256   2.152   1_556  S
O238       Mg250   2.293       .  S
Mg239       O255   2.278       .  S
O240       Mg256   2.280   1_545  S
H241        C246   1.081       .  S
O242       Mg250   2.140       .  S
O242        C245   1.235   1_556  S
H243        C245   1.081   1_556  S
H244        C247   1.081       .  S
O249       Mg256   2.299       .  S
C252        O257   1.273       .  A
C252       C1268   1.477       .  S
O253        C254   1.273       .  A
C254       C1288   1.475       .  S
O259       Mg261   2.149   1_556  S
O259       Mg267   2.146       .  S
O259        C294   1.236       .  S
C260        O273   1.237       .  S
C260        O297   1.270       .  A
C260        H299   1.081       .  S
Mg261       O290   2.144       .  S
Mg261       O305   2.294       .  S
Mg261       O301   2.277       .  S
Mg261       O272   2.295       .  S
O262       Mg304   2.153       .  S
O262       Mg287   2.147       .  S
O262        C283   1.237       .  S
O263        C294   1.271       .  A
O263       Mg287   2.307       .  S
C264        O266   1.268       .  A
C264        O278   1.276       .  A
C264       C1594   1.471       .  S
O265        C293   1.270   1_556  A
O265       Mg267   2.300       .  S
O266       Mg298   2.234       .  S
Mg267       O273   2.150       .  S
Mg267       O281   2.279       .  S
Mg267       O269   2.285       .  S
C268        O306   1.272   1_556  A
C268        O274   1.273       .  A
C268       C1178   1.470       .  S
O269        C276   1.273       .  A
H270        C283   1.081       .  S
C271        O285   1.235       .  S
C271        O286   1.267   1_556  A
C271        H296   1.081       .  S
O272        C295   1.270       .  A
O273       Mg287   2.165       .  S
O274       Mg304   2.295       .  S
C275        O288   1.268       .  A
C275        O280   1.278       .  A
C275       C1232   1.475       .  S
C276        O303   1.274       .  A
C276       C1214   1.471       .  S
Mg277       O284   2.126       .  S
Mg277       O285   2.152   1_554  S
Mg277       O278   2.317       .  S
Mg277       O279   2.301       .  S
Mg277       O306   2.253       .  S
O279        C283   1.271   1_554  A
O280       Mg287   2.331       .  S
O281        C300   1.273       .  A
O282        C302   1.269       .  A
O282       Mg298   2.272       .  S
O284       Mg298   2.153       .  S
O284        C295   1.236       .  S
O285       Mg304   2.127       .  S
O286       Mg298   2.284       .  S
Mg287       O303   2.281       .  S
O288       Mg304   2.237       .  S
H289        C294   1.081       .  S
O290       Mg298   2.130       .  S
O290        C293   1.236       .  S
H291        C293   1.081       .  S
H292        C295   1.081       .  S
O297       Mg304   2.295       .  S
C300        O305   1.272   1_556  A
C300       C1196   1.473       .  S
O301        C302   1.273       .  A
C302       C1342   1.470       .  S
O307       Mg309   2.164       .  S
O307       Mg315   2.144   1_554  S
O307        C342   1.235   1_554  S
C308        O321   1.235   1_655  S
C308        O345   1.270       .  A
C308        H347   1.081       .  S
Mg309       O338   2.163   1_455  S
Mg309       O353   2.293   1_455  S
Mg309       O349   2.245       .  S
Mg309       O320   2.284       .  S
O310       Mg352   2.169       .  S
O310       Mg335   2.164       .  S
O310        C331   1.238       .  S
O311        C342   1.271       .  A
O311       Mg335   2.313       .  S
C312        O314   1.280       .  A
C312        O326   1.276       .  A
C312       C1322   1.484       .  S
O313        C341   1.274   1_556  A
O313       Mg315   2.314   1_655  S
O314       Mg346   2.317       .  S
Mg315       O321   2.156       .  S
Mg315       O329   2.291       .  S
Mg315       O317   2.315       .  S
C316        O354   1.271       .  A
C316        O322   1.274   1_554  A
C316       C1124   1.479       .  S
O317        C324   1.276       .  A
H318        C331   1.081       .  S
C319        O333   1.235       .  S
C319        O334   1.269       .  A
C319        H344   1.081   1_554  S
O320        C343   1.267       .  A
O321       Mg335   2.159       .  S
O322       Mg352   2.304       .  S
C323        O336   1.273       .  A
C323        O328   1.279       .  A
C323       C1142   1.486       .  S
C324        O351   1.276       .  A
C324       C1160   1.484       .  S
Mg325       O332   2.140       .  S
Mg325       O333   2.157   1_455  S
Mg325       O326   2.303   1_455  S
Mg325       O327   2.302       .  S
Mg325       O354   2.272       .  S
O327        C331   1.272   1_554  A
O328       Mg335   2.336       .  S
O329        C348   1.273   1_556  A
O330        C350   1.281       .  A
O330       Mg346   2.360       .  S
O332       Mg346   2.168   1_455  S
O332        C343   1.234       .  S
O333       Mg352   2.156   1_654  S
O334       Mg346   2.302       .  S
Mg335       O351   2.304       .  S
O336       Mg352   2.263       .  S
H337        C342   1.081   1_554  S
O338       Mg346   2.169       .  S
O338        C341   1.238       .  S
H339        C341   1.081       .  S
H340        C343   1.081       .  S
O345       Mg352   2.300   1_655  S
C348        O353   1.271   1_455  A
C348       C1108   1.478   1_455  S
O349        C350   1.270   1_455  A
C350       C1540   1.484       .  S
O355       Mg357   2.141       .  S
O355       Mg363   2.160       .  S
O355        C390   1.234       .  S
C356        O369   1.235       .  S
C356        O393   1.268       .  A
C356        H395   1.081       .  S
Mg357       O386   2.156       .  S
Mg357       O401   2.278       .  S
Mg357       O397   2.266       .  S
Mg357       O368   2.292       .  S
O358       Mg400   2.166       .  S
O358       Mg383   2.167       .  S
O358        C379   1.237       .  S
O359        C390   1.268       .  A
O359       Mg383   2.295       .  S
C360        O362   1.272       .  A
C360        O374   1.278       .  A
C360       C1088   1.480       .  S
O361        C389   1.271       .  A
O361       Mg363   2.295       .  S
O362       Mg394   2.259       .  S
Mg363       O369   2.139       .  S
Mg363       O377   2.281       .  S
Mg363       O365   2.298       .  S
C364        O402   1.270       .  A
C364        O370   1.275       .  A
C364       C1000   1.474       .  S
O365        C372   1.276       .  A
H366        C379   1.081       .  S
C367        O381   1.235       .  S
C367        O382   1.269       .  A
C367        H392   1.081       .  S
O368        C391   1.269       .  A
O369       Mg383   2.165       .  S
O370       Mg400   2.297       .  S
C371        O384   1.272       .  A
C371        O376   1.278       .  A
C371       C1052   1.479       .  S
C372        O399   1.277       .  A
C372       C1036   1.479       .  S
Mg373       O380   2.137       .  S
Mg373       O381   2.160       .  S
Mg373       O374   2.329       .  S
Mg373       O375   2.309       .  S
Mg373       O402   2.255       .  S
O375        C379   1.272       .  A
O376       Mg383   2.321       .  S
O377        C396   1.272       .  A
O378        C398   1.276       .  A
O378       Mg394   2.311       .  S
O380       Mg394   2.159       .  S
O380        C391   1.236       .  S
O381       Mg400   2.156       .  S
O382       Mg394   2.299       .  S
Mg383       O399   2.304       .  S
O384       Mg400   2.263       .  S
H385        C390   1.081       .  S
O386       Mg394   2.138       .  S
O386        C389   1.237       .  S
H387        C389   1.081       .  S
H388        C391   1.081       .  S
O393       Mg400   2.288       .  S
C396        O401   1.273       .  A
C396       C1016   1.477       .  S
O397        C398   1.271       .  A
C398       C1072   1.480       .  S
C403       C1234   1.485       .  S
C403        C404   1.394       .  A
C403        C408   1.414       .  A
C404        H423   1.085       .  S
C404        C405   1.403       .  A
C405       C1162   1.501       .  S
C405        C406   1.424       .  A
C406        C407   1.425       .  A
C406        C413   1.406       .  A
C407        C408   1.423       .  A
C407        C412   1.426       .  A
C408        C409   1.405       .  A
C409        H419   1.081       .  S
C409        C410   1.390       .  A
C410        H420   1.082       .  S
C410        C411   1.404       .  A
C411        C412   1.423       .  A
C411        C418   1.413       .  A
C412        C415   1.426       .  A
C413        H421   1.082       .  S
C413        C414   1.400       .  A
C414        H422   1.080       .  S
C414        C415   1.409       .  A
C415        C416   1.428       .  A
C416        C980   1.506       .  S
C416        C417   1.406       .  A
C417        H424   1.084       .  S
C417        C418   1.393       .  A
C418       C1054   1.486       .  S
C425       C1144   1.498       .  S
C425        C426   1.402       .  A
C425        C430   1.420       .  A
C426        H445   1.084       .  S
C426        C427   1.402       .  A
C427       C1286   1.490       .  S
C427        C428   1.416       .  A
C428        C429   1.420       .  A
C428        C435   1.409       .  A
C429        C430   1.424       .  A
C429        C434   1.425       .  A
C430        C431   1.406       .  A
C431        H441   1.082       .  S
C431        C432   1.394       .  A
C432        H442   1.082       .  S
C432        C433   1.406       .  A
C433        C434   1.422       .  A
C433        C440   1.416       .  A
C434        C437   1.426       .  A
C435        H443   1.081       .  S
C435        C436   1.393       .  A
C436        H444   1.082       .  S
C436        C437   1.403       .  A
C437        C438   1.417       .  A
C438       C1034   1.497       .  S
C438        C439   1.398       .  A
C439        H446   1.085       .  S
C439        C440   1.399       .  A
C440        C962   1.492       .  S
O447       Mg449   2.170       .  S
O447       Mg455   2.167       .  S
O447        C482   1.236       .  S
C448        O461   1.235       .  S
C448        O485   1.268       .  A
C448        H487   1.081       .  S
Mg449       O478   2.159       .  S
Mg449       O493   2.315       .  S
Mg449       O489   2.288       .  S
Mg449       O460   2.303       .  S
O450       Mg492   2.163       .  S
O450       Mg475   2.145       .  S
O450        C471   1.236       .  S
O451        C482   1.270       .  A
O451       Mg475   2.302       .  S
C452        O454   1.276       .  A
C452        O466   1.273       .  A
C452        C926   1.482       .  S
O453        C481   1.272       .  A
O453       Mg455   2.307       .  S
O454       Mg486   2.310       .  S
Mg455       O461   2.139       .  S
Mg455       O469   2.260       .  S
Mg455       O457   2.322       .  S
C456        O494   1.271       .  A
C456        O462   1.274       .  A
C456        C872   1.478   1_545  S
O457        C464   1.278       .  A
H458        C471   1.081       .  S
C459        O473   1.235       .  S
C459        O474   1.269       .  A
C459        H484   1.081       .  S
O460        C483   1.270       .  A
O461       Mg475   2.169       .  S
O462       Mg492   2.301       .  S
C463        O476   1.269       .  A
C463        O468   1.279       .  A
C463        C908   1.473       .  S
C464        O491   1.274       .  A
C464        C982   1.480       .  S
Mg465       O472   2.144       .  S
Mg465       O473   2.151       .  S
Mg465       O466   2.295       .  S
Mg465       O467   2.294       .  S
Mg465       O494   2.268       .  S
O467        C471   1.270       .  A
O468       Mg475   2.335       .  S
O469        C488   1.271       .  A
O470        C490   1.275       .  A
O470       Mg486   2.307       .  S
O472       Mg486   2.153       .  S
O472        C483   1.236       .  S
O473       Mg492   2.137       .  S
O474       Mg486   2.298       .  S
Mg475       O491   2.277       .  S
O476       Mg492   2.233       .  S
H477        C482   1.081       .  S
O478       Mg486   2.169       .  S
O478        C481   1.237       .  S
H479        C481   1.081       .  S
H480        C483   1.081       .  S
O485       Mg492   2.286       .  S
C488        O493   1.277       .  A
C488        C892   1.478       .  S
O489        C490   1.275       .  A
C490        C946   1.480       .  S
O495       Mg497   2.154       .  S
O495       Mg503   2.147       .  S
O495        C530   1.236       .  S
C496        O509   1.234       .  S
C496        O533   1.268       .  A
C496        H535   1.081       .  S
Mg497       O526   2.154       .  S
Mg497       O541   2.304       .  S
Mg497       O537   2.273       .  S
Mg497       O508   2.301       .  S
O498       Mg540   2.166       .  S
O498       Mg523   2.156       .  S
O498        C519   1.236       .  S
O499        C530   1.271       .  A
O499       Mg523   2.308       .  S
C500        O502   1.273       .  A
C500        O514   1.273       .  A
C500        C964   1.476       .  S
O501        C529   1.273       .  A
O501       Mg503   2.307       .  S
O502       Mg534   2.278       .  S
Mg503       O509   2.141       .  S
Mg503       O517   2.271       .  S
Mg503       O505   2.285       .  S
C504        O542   1.271       .  A
C504        O510   1.274       .  A
C504        C784   1.478   1_655  S
O505        C512   1.273       .  A
H506        C519   1.081       .  S
C507        O521   1.235       .  S
C507        O522   1.270       .  A
C507        H532   1.081       .  S
O508        C531   1.270       .  A
O509       Mg523   2.163       .  S
O510       Mg540   2.308       .  S
C511        O524   1.272       .  A
C511        O516   1.281       .  A
C511        C854   1.480       .  S
C512        O539   1.277       .  A
C512        C836   1.476       .  S
Mg513       O520   2.143       .  S
Mg513       O521   2.154       .  S
Mg513       O514   2.296       .  S
Mg513       O515   2.298       .  S
Mg513       O542   2.261       .  S
O515        C519   1.270       .  A
O516       Mg523   2.342       .  S
O517        C536   1.272       .  A
O518        C538   1.274       .  A
O518       Mg534   2.305       .  S
O520       Mg534   2.155       .  S
O520        C531   1.235       .  S
O521       Mg540   2.149       .  S
O522       Mg534   2.301       .  S
Mg523       O539   2.308       .  S
O524       Mg540   2.253       .  S
H525        C530   1.081       .  S
O526       Mg534   2.152       .  S
O526        C529   1.238       .  S
H527        C529   1.081       .  S
H528        C531   1.081       .  S
O533       Mg540   2.288       .  S
C536        O541   1.273       .  A
C536        C802   1.479       .  S
O537        C538   1.273       .  A
C538        C820   1.478       .  S
C543       C1216   1.491       .  S
C543        C544   1.399       .  A
C543        C548   1.414       .  A
C544        H563   1.084       .  S
C544        C545   1.399       .  A
C545       C1306   1.493       .  S
C545        C546   1.416       .  A
C546        C547   1.423       .  A
C546        C553   1.405       .  A
C547        C548   1.422       .  A
C547        C552   1.424       .  A
C548        C549   1.405       .  A
C549        H559   1.082       .  S
C549        C550   1.392       .  A
C550        H560   1.082       .  S
C550        C551   1.406       .  A
C551        C552   1.422       .  A
C551        C558   1.417       .  A
C552        C555   1.421       .  A
C553        H561   1.082       .  S
C553        C554   1.393       .  A
C554        H562   1.081       .  S
C554        C555   1.407       .  A
C555        C556   1.416       .  A
C556        C910   1.491       .  S
C556        C557   1.402       .  A
C557        H564   1.084       .  S
C557        C558   1.401       .  A
C558        C818   1.492       .  S
C565       C1684   1.495       .  S
C565        C566   1.402       .  A
C565        C570   1.418       .  A
C566        H585   1.084       .  S
C566        C567   1.402       .  A
C567       C1486   1.493       .  S
C567        C568   1.417   1_455  A
C568        C569   1.422       .  A
C568        C575   1.407       .  A
C569        C570   1.423   1_655  A
C569        C574   1.426       .  A
C570        C571   1.406       .  A
C571        H581   1.081       .  S
C571        C572   1.393   1_455  A
C572        H582   1.081       .  S
C572        C573   1.406       .  A
C573        C574   1.422       .  A
C573        C580   1.418       .  A
C574        C577   1.423       .  A
C575        H583   1.081       .  S
C575        C576   1.393       .  A
C576        H584   1.081       .  S
C576        C577   1.405       .  A
C577        C578   1.418       .  A
C578        C856   1.488       .  S
C578        C579   1.398       .  A
C579        H586   1.085       .  S
C579        C580   1.402       .  A
C580        C944   1.494       .  S
C587       C1414   1.497       .  S
C587        C588   1.400       .  A
C587        C592   1.419       .  A
C588        H607   1.084       .  S
C588        C589   1.401       .  A
C589       C1702   1.496       .  S
C589        C590   1.419       .  A
C590        C591   1.423       .  A
C590        C597   1.407       .  A
C591        C592   1.424       .  A
C591        C596   1.427       .  A
C592        C593   1.406       .  A
C593        H603   1.082       .  S
C593        C594   1.394       .  A
C594        H604   1.081       .  S
C594        C595   1.406       .  A
C595        C596   1.423       .  A
C595        C602   1.419       .  A
C596        C599   1.424       .  A
C597        H605   1.081       .  S
C597        C598   1.394       .  A
C598        H606   1.082       .  S
C598        C599   1.405       .  A
C599        C600   1.418       .  A
C600       C1090   1.498       .  S
C600        C601   1.400       .  A
C601        H608   1.083       .  S
C601        C602   1.401       .  A
C602        C838   1.498       .  S
C609       C1396   1.491       .  S
C609        C610   1.401       .  A
C609        C614   1.416   1_565  A
C610        H629   1.084       .  S
C610        C611   1.403       .  A
C611       C1504   1.500       .  S
C611        C612   1.422   1_565  A
C612        C613   1.425       .  A
C612        C619   1.407       .  A
C613        C614   1.421       .  A
C613        C618   1.427       .  A
C614        C615   1.406       .  A
C615        H625   1.082       .  S
C615        C616   1.393       .  A
C616        H626   1.081       .  S
C616        C617   1.406       .  A
C617        C618   1.426       .  A
C617        C624   1.421       .  A
C618        C621   1.421       .  A
C619        H627   1.081       .  S
C619        C620   1.395       .  A
C620        H628   1.082       .  S
C620        C621   1.406       .  A
C621        C622   1.416       .  A
C622       C1070   1.491       .  S
C622        C623   1.401       .  A
C623        H630   1.084       .  S
C623        C624   1.402       .  A
C624        C928   1.502       .  S
O631       Mg633   2.156   1_455  S
O631       Mg639   2.149   1_554  S
O631        C666   1.237       .  S
C632        O645   1.234       .  S
C632        O669   1.268       .  A
C632        H671   1.081       .  S
Mg633       O662   2.158   1_554  S
Mg633       O677   2.332   1_554  S
Mg633       O673   2.264       .  S
Mg633       O644   2.305       .  S
O634       Mg676   2.165   1_554  S
O634       Mg659   2.145       .  S
O634        C655   1.235       .  S
O635        C666   1.272       .  A
O635       Mg659   2.307   1_565  S
C636        O638   1.276       .  A
C636        O650   1.271   1_566  A
C636       C1250   1.476   1_565  S
O637        C665   1.272   1_455  A
O637       Mg639   2.309       .  S
O638       Mg670   2.302       .  S
Mg639       O645   2.131   1_565  S
Mg639       O653   2.246       .  S
Mg639       O641   2.294   1_556  S
C640        O678   1.271       .  A
C640        O646   1.275   1_655  A
C640       C1106   1.481       .  S
O641        C648   1.273       .  A
H642        C655   1.081       .  S
C643        O657   1.235       .  S
C643        O658   1.269       .  A
C643        H668   1.081       .  S
O644        C667   1.270       .  A
O645       Mg659   2.153   1_556  S
O646       Mg676   2.306   1_554  S
C647        O660   1.272       .  A
C647        O652   1.276       .  A
C647       C1180   1.472       .  S
C648        O675   1.274   1_565  A
C648       C1270   1.479       .  S
Mg649       O656   2.149   1_545  S
Mg649       O657   2.157   1_554  S
Mg649       O650   2.277       .  S
Mg649       O651   2.289       .  S
Mg649       O678   2.267       .  S
O651        C655   1.268   1_655  A
O652       Mg659   2.309       .  S
O653        C672   1.269       .  A
O654        C674   1.275   1_556  A
O654       Mg670   2.312       .  S
O656       Mg670   2.160   1_554  S
O656        C667   1.235       .  S
O657       Mg676   2.138   1_655  S
O658       Mg670   2.297   1_545  S
Mg659       O675   2.289       .  S
O660       Mg676   2.245   1_554  S
H661        C666   1.081       .  S
O662       Mg670   2.168       .  S
O662        C665   1.237       .  S
H663        C665   1.081       .  S
H664        C667   1.081       .  S
O669       Mg676   2.290       .  S
C672        O677   1.276   1_455  A
C672       C1126   1.482       .  S
O673        C674   1.273       .  A
C674       C1198   1.478       .  S
O679       Mg681   2.149       .  S
O679       Mg687   2.152       .  S
O679        C714   1.235       .  S
C680        O693   1.237       .  S
C680        O717   1.272       .  A
C680        H719   1.081       .  S
Mg681       O710   2.146       .  S
Mg681       O725   2.301       .  S
Mg681       O721   2.271       .  S
Mg681       O692   2.300       .  S
O682       Mg724   2.142       .  S
O682       Mg707   2.159       .  S
O682        C703   1.236       .  S
O683        C714   1.269       .  A
O683       Mg707   2.299       .  S
C684        O686   1.271       .  A
C684        O698   1.278       .  A
C684       C1666   1.486       .  S
O685        C713   1.270       .  A
O685       Mg687   2.302       .  S
O686       Mg718   2.253       .  S
Mg687       O693   2.150       .  S
Mg687       O701   2.269       .  S
Mg687       O689   2.325       .  S
C688        O726   1.273       .  A
C688        O694   1.273       .  A
C688       C1358   1.471       .  S
O689        C696   1.276       .  A
H690        C703   1.081       .  S
C691        O705   1.236       .  S
C691        O706   1.270       .  A
C691        H716   1.081       .  S
O692        C715   1.271       .  A
O693       Mg707   2.149       .  S
O694       Mg724   2.298       .  S
C695        O708   1.272       .  A
C695        O700   1.271       .  A
C695       C1448   1.477       .  S
C696        O723   1.272       .  A
C696       C1648   1.484       .  S
Mg697       O704   2.137       .  S
Mg697       O705   2.155       .  S
Mg697       O698   2.342       .  S
Mg697       O699   2.313       .  S
Mg697       O726   2.262       .  S
O699        C703   1.272       .  A
O700       Mg707   2.299       .  S
O701        C720   1.273       .  A
O702        C722   1.271       .  A
O702       Mg718   2.287       .  S
O704       Mg718   2.147       .  S
O704        C715   1.237       .  S
O705       Mg724   2.155       .  S
O706       Mg718   2.300       .  S
Mg707       O723   2.267       .  S
O708       Mg724   2.275       .  S
H709        C714   1.081       .  S
O710       Mg718   2.143       .  S
O710        C713   1.235       .  S
H711        C713   1.081       .  S
H712        C715   1.081       .  S
O717       Mg724   2.308       .  S
C720        O725   1.273       .  A
C720       C1376   1.472       .  S
O721        C722   1.272       .  A
C722       C1466   1.472       .  S
O727       Mg729   2.137       .  S
O727       Mg735   2.143       .  S
O727        C762   1.235       .  S
C728        O741   1.237       .  S
C728        O765   1.271       .  A
C728        H767   1.081       .  S
Mg729       O758   2.148       .  S
Mg729       O773   2.288       .  S
Mg729       O769   2.248       .  S
Mg729       O740   2.292       .  S
O730       Mg772   2.156       .  S
O730       Mg755   2.143       .  S
O730        C751   1.237       .  S
O731        C762   1.270       .  A
O731       Mg755   2.301       .  S
C732        O734   1.271       .  A
C732        O746   1.279       .  A
C732        C998   1.471       .  S
O733        C761   1.271       .  A
O733       Mg735   2.301       .  S
O734       Mg766   2.245       .  S
Mg735       O741   2.153       .  S
Mg735       O749   2.289       .  S
Mg735       O737   2.296       .  S
C736        O774   1.275       .  A
C736        O742   1.274       .  A
C736        C800   1.483       .  S
O737        C744   1.274       .  A
H738        C751   1.081       .  S
C739        O753   1.235       .  S
C739        O754   1.269       .  A
C739        H764   1.081       .  S
O740        C763   1.269       .  A
O741       Mg755   2.157       .  S
O742       Mg772   2.291       .  S
C743        O756   1.271       .  A
C743        O748   1.276       .  A
C743        C874   1.480       .  S
C744        O771   1.273       .  A
C744       C1018   1.472       .  S
Mg745       O752   2.149       .  S
Mg745       O753   2.160       .  S
Mg745       O746   2.317       .  S
Mg745       O747   2.299       .  S
Mg745       O774   2.293       .  S
O747        C751   1.271       .  A
O748       Mg755   2.309       .  S
O749        C768   1.273       .  A
O750        C770   1.278       .  A
O750       Mg766   2.328       .  S
O752       Mg766   2.167       .  S
O752        C763   1.236       .  S
O753       Mg772   2.139       .  S
O754       Mg766   2.292       .  S
Mg755       O771   2.269       .  S
O756       Mg772   2.265       .  S
H757        C762   1.081       .  S
O758       Mg766   2.133       .  S
O758        C761   1.237       .  S
H759        C761   1.081       .  S
H760        C763   1.081       .  S
O765       Mg772   2.299       .  S
C768        O773   1.271       .  A
C768        C782   1.472       .  S
O769        C770   1.269       .  A
C770        C890   1.479       .  S
C775        C783   1.485       .  S
C775        C776   1.403       .  A
C775        C780   1.407       .  A
C776        H785   1.083       .  S
C776        C777   1.400       .  A
C777        H786   1.083       .  S
C777        C778   1.407       .  A
C778        C781   1.484       .  S
C778        C779   1.402       .  A
C779        H787   1.083       .  S
C779        C780   1.399       .  A
C780        H788   1.082       .  S
C781        H789   1.087       .  S
C781        C782   1.343       .  D
C782        H790   1.086       .  S
C783        H791   1.087       .  S
C783        C784   1.346       .  D
C784        H792   1.086       .  S
C793        C801   1.489       .  S
C793        C794   1.405       .  A
C793        C798   1.406       .  A
C794        H803   1.083       .  S
C794        C795   1.400       .  A
C795        H804   1.081       .  S
C795        C796   1.407       .  A
C796        C799   1.490       .  S
C796        C797   1.405       .  A
C797        H805   1.083       .  S
C797        C798   1.399       .  A
C798        H806   1.082       .  S
C799        H807   1.087       .  S
C799        C800   1.351       .  D
C800        H808   1.084       .  S
C801        H809   1.087       .  S
C801        C802   1.348       .  D
C802        H810   1.085       .  S
C811        C819   1.491       .  S
C811        C812   1.405       .  A
C811        C816   1.409       .  A
C812        H821   1.083       .  S
C812        C813   1.401       .  A
C813        H822   1.081       .  S
C813        C814   1.408       .  A
C814        C817   1.487       .  S
C814        C815   1.402       .  A
C815        H823   1.084       .  S
C815        C816   1.397       .  A
C816        H824   1.081       .  S
C817        H825   1.087       .  S
C817        C818   1.347       .  D
C818        H826   1.085       .  S
C819        H827   1.087       .  S
C819        C820   1.347       .  D
C820        H828   1.084       .  S
C829        C837   1.491       .  S
C829        C830   1.404       .  A
C829        C834   1.410       .  A
C830        H839   1.084       .  S
C830        C831   1.395       .  A
C831        H840   1.082       .  S
C831        C832   1.406       .  A
C832        C835   1.492       .  S
C832        C833   1.405       .  A
C833        H841   1.083       .  S
C833        C834   1.405       .  A
C834        H842   1.080       .  S
C835        H843   1.087       .  S
C835        C836   1.346       .  D
C836        H844   1.086       .  S
C837        H845   1.087       .  S
C837        C838   1.351       .  D
C838        H846   1.083       .  S
C847        C855   1.492       .  S
C847        C848   1.402       .  A
C847        C852   1.408       .  A
C848        H857   1.083       .  S
C848        C849   1.400       .  A
C849        H858   1.079       .  S
C849        C850   1.412       .  A
C850        C853   1.500       .  S
C850        C851   1.406       .  A
C851        H859   1.083       .  S
C851        C852   1.402       .  A
C852        H860   1.082       .  S
C853        H861   1.087       .  S
C853        C854   1.348       .  D
C854        H862   1.082       .  S
C855        H863   1.087       .  S
C855        C856   1.346       .  D
C856        H864   1.085       .  S
C865        C873   1.486       .  S
C865        C866   1.402       .  A
C865        C870   1.408       .  A
C866        H875   1.083       .  S
C866        C867   1.396       .  A
C867        H876   1.082       .  S
C867        C868   1.406       .  A
C868        C871   1.486       .  S
C868        C869   1.405       .  A
C869        H877   1.083       .  S
C869        C870   1.403       .  A
C870        H878   1.082       .  S
C871        H879   1.087       .  S
C871        C872   1.348       .  D
C872        H880   1.086       .  S
C873        H881   1.087       .  S
C873        C874   1.346       .  D
C874        H882   1.085       .  S
C883        C891   1.487       .  S
C883        C884   1.403       .  A
C883        C888   1.407       .  A
C884        H893   1.083       .  S
C884        C885   1.402       .  A
C885        H894   1.081       .  S
C885        C886   1.410       .  A
C886        C889   1.490       .  S
C886        C887   1.403       .  A
C887        H895   1.083       .  S
C887        C888   1.398       .  A
C888        H896   1.082       .  S
C889        H897   1.087       .  S
C889        C890   1.345       .  D
C890        H898   1.085       .  S
C891        H899   1.087   1_455  S
C891        C892   1.347   1_455  D
C892        H900   1.086   1_655  S
C901        C909   1.484       .  S
C901        C902   1.401       .  A
C901        C906   1.409       .  A
C902        H911   1.084       .  S
C902        C903   1.393       .  A
C903        H912   1.083       .  S
C903        C904   1.407   1_565  A
C904        C907   1.487       .  S
C904        C905   1.404       .  A
C905        H913   1.083       .  S
C905        C906   1.404   1_545  A
C906        H914   1.082       .  S
C907        H915   1.087       .  S
C907        C908   1.344       .  D
C908        H916   1.087       .  S
C909        H917   1.088       .  S
C909        C910   1.345       .  D
C910        H918   1.085       .  S
C919        C927   1.496       .  S
C919        C920   1.406       .  A
C919        C924   1.410       .  A
C920        H929   1.084       .  S
C920        C921   1.398       .  A
C921        H930   1.081       .  S
C921        C922   1.407       .  A
C922        C925   1.497       .  S
C922        C923   1.406       .  A
C923        H931   1.083       .  S
C923        C924   1.405       .  A
C924        H932   1.080       .  S
C925        H933   1.087       .  S
C925        C926   1.348       .  D
C926        H934   1.085       .  S
C927        H935   1.087       .  S
C927        C928   1.353       .  D
C928        H936   1.082       .  S
C937        C945   1.493       .  S
C937        C938   1.406       .  A
C937        C942   1.408       .  A
C938        H947   1.083       .  S
C938        C939   1.404       .  A
C939        H948   1.082       .  S
C939        C940   1.408       .  A
C940        C943   1.489       .  S
C940        C941   1.402       .  A
C941        H949   1.084       .  S
C941        C942   1.397       .  A
C942        H950   1.081       .  S
C943        H951   1.087       .  S
C943        C944   1.347       .  D
C944        H952   1.085       .  S
C945        H953   1.087       .  S
C945        C946   1.349       .  D
C946        H954   1.085       .  S
C955        C963   1.492       .  S
C955        C956   1.406       .  A
C955        C960   1.408   1_655  A
C956        H965   1.083       .  S
C956        C957   1.402   1_655  A
C957        H966   1.081   1_455  S
C957        C958   1.407       .  A
C958        C961   1.486       .  S
C958        C959   1.403       .  A
C959        H967   1.084       .  S
C959        C960   1.395       .  A
C960        H968   1.080       .  S
C961        H969   1.088       .  S
C961        C962   1.349       .  D
C962        H970   1.084       .  S
C963        H971   1.087       .  S
C963        C964   1.347       .  D
C964        H972   1.083       .  S
C973        C981   1.489   1_455  S
C973        C974   1.404       .  A
C973        C978   1.407       .  A
C974        H983   1.083       .  S
C974        C975   1.398       .  A
C975        H984   1.084       .  S
C975        C976   1.405       .  A
C976        C979   1.486       .  S
C976        C977   1.405       .  A
C977        H985   1.082       .  S
C977        C978   1.405       .  A
C978        H986   1.083   1_455  S
C979        H987   1.085       .  S
C979        C980   1.355       .  D
C980        H988   1.084       .  S
C981        H989   1.087       .  S
C981        C982   1.348       .  D
C982        H990   1.086       .  S
C991        C999   1.482       .  S
C991        C992   1.402       .  A
C991        C996   1.408       .  A
C992       H1001   1.083       .  S
C992        C993   1.397       .  A
C993       H1002   1.082       .  S
C993        C994   1.406       .  A
C994        C997   1.481       .  S
C994        C995   1.402       .  A
C995       H1003   1.083       .  S
C995        C996   1.397       .  A
C996       H1004   1.082       .  S
C997       H1005   1.087       .  S
C997        C998   1.343       .  D
C998       H1006   1.086       .  S
C999       H1007   1.087       .  S
C999       C1000   1.345       .  D
C1000      H1008   1.086       .  S
C1009      C1017   1.483       .  S
C1009      C1010   1.404       .  A
C1009      C1014   1.406       .  A
C1010      H1019   1.083       .  S
C1010      C1011   1.400       .  A
C1011      H1020   1.082       .  S
C1011      C1012   1.406       .  A
C1012      C1015   1.480       .  S
C1012      C1013   1.402       .  A
C1013      H1021   1.084       .  S
C1013      C1014   1.395       .  A
C1014      H1022   1.082       .  S
C1015      H1023   1.087       .  S
C1015      C1016   1.347   1_565  D
C1016      H1024   1.086       .  S
C1017      H1025   1.087       .  S
C1017      C1018   1.345       .  D
C1018      H1026   1.086       .  S
C1027      C1035   1.496       .  S
C1027      C1028   1.408       .  A
C1027      C1032   1.406   1_545  A
C1028      H1037   1.083       .  S
C1028      C1029   1.408       .  A
C1029      H1038   1.081       .  S
C1029      C1030   1.409   1_545  A
C1030      C1033   1.490       .  S
C1030      C1031   1.403       .  A
C1031      H1039   1.084       .  S
C1031      C1032   1.393       .  A
C1032      H1040   1.081       .  S
C1033      H1041   1.088       .  S
C1033      C1034   1.351       .  D
C1034      H1042   1.084       .  S
C1035      H1043   1.086       .  S
C1035      C1036   1.349       .  D
C1036      H1044   1.085       .  S
C1045      C1053   1.491       .  S
C1045      C1046   1.403       .  A
C1045      C1050   1.408       .  A
C1046      H1055   1.083       .  S
C1046      C1047   1.399       .  A
C1047      H1056   1.080       .  S
C1047      C1048   1.409       .  A
C1048      C1051   1.494       .  S
C1048      C1049   1.405       .  A
C1049      H1057   1.083       .  S
C1049      C1050   1.402       .  A
C1050      H1058   1.081       .  S
C1051      H1059   1.087       .  S
C1051      C1052   1.349       .  D
C1052      H1060   1.084       .  S
C1053      H1061   1.088       .  S
C1053      C1054   1.346       .  D
C1054      H1062   1.085       .  S
C1063      C1071   1.492       .  S
C1063      C1064   1.406       .  A
C1063      C1068   1.408       .  A
C1064      H1073   1.083       .  S
C1064      C1065   1.403       .  A
C1065      H1074   1.081       .  S
C1065      C1066   1.407       .  A
C1066      C1069   1.487       .  S
C1066      C1067   1.403       .  A
C1067      H1075   1.084       .  S
C1067      C1068   1.397       .  A
C1068      H1076   1.081       .  S
C1069      H1077   1.088       .  S
C1069      C1070   1.348       .  D
C1070      H1078   1.085       .  S
C1071      H1079   1.087       .  S
C1071      C1072   1.349       .  D
C1072      H1080   1.084       .  S
C1081      C1089   1.492       .  S
C1081      C1082   1.404       .  A
C1081      C1086   1.409       .  A
C1082      H1091   1.084       .  S
C1082      C1083   1.397       .  A
C1083      H1092   1.080       .  S
C1083      C1084   1.407       .  A
C1084      C1087   1.495       .  S
C1084      C1085   1.406       .  A
C1085      H1093   1.083       .  S
C1085      C1086   1.404       .  A
C1086      H1094   1.080       .  S
C1087      H1095   1.087       .  S
C1087      C1088   1.349       .  D
C1088      H1096   1.084       .  S
C1089      H1097   1.087       .  S
C1089      C1090   1.351       .  D
C1090      H1098   1.083       .  S
C1099      C1107   1.492   1_554  S
C1099      C1100   1.408   1_455  A
C1099      C1104   1.403   1_554  A
C1100      H1109   1.081       .  S
C1100      C1101   1.402       .  A
C1101      H1110   1.079       .  S
C1101      C1102   1.410   1_655  A
C1102      C1105   1.496       .  S
C1102      C1103   1.406       .  A
C1103      H1111   1.084   1_554  S
C1103      C1104   1.399   1_554  A
C1104      H1112   1.083       .  S
C1105      H1113   1.088       .  S
C1105      C1106   1.350   1_455  D
C1106      H1114   1.083       .  S
C1107      H1115   1.087       .  S
C1107      C1108   1.346   1_456  D
C1108      H1116   1.085       .  S
C1117      C1125   1.487       .  S
C1117      C1118   1.405       .  A
C1117      C1122   1.406       .  A
C1118      H1127   1.083   1_556  S
C1118      C1119   1.399       .  A
C1119      H1128   1.082   1_556  S
C1119      C1120   1.406       .  A
C1120      C1123   1.488       .  S
C1120      C1121   1.405       .  A
C1121      H1129   1.083   1_455  S
C1121      C1122   1.402       .  A
C1122      H1130   1.082   1_455  S
C1123      H1131   1.087       .  S
C1123      C1124   1.348   1_556  D
C1124      H1132   1.086       .  S
C1125      H1133   1.087       .  S
C1125      C1126   1.350       .  D
C1126      H1134   1.085   1_455  S
C1135      C1143   1.493       .  S
C1135      C1136   1.405       .  A
C1135      C1140   1.407       .  A
C1136      H1145   1.083       .  S
C1136      C1137   1.401       .  A
C1137      H1146   1.081       .  S
C1137      C1138   1.408       .  A
C1138      C1141   1.495       .  S
C1138      C1139   1.407       .  A
C1139      H1147   1.083       .  S
C1139      C1140   1.403       .  A
C1140      H1148   1.081       .  S
C1141      H1149   1.087       .  S
C1141      C1142   1.352       .  D
C1142      H1150   1.085       .  S
C1143      H1151   1.087       .  S
C1143      C1144   1.351       .  D
C1144      H1152   1.084       .  S
C1153      C1161   1.495       .  S
C1153      C1154   1.406       .  A
C1153      C1158   1.407       .  A
C1154      H1163   1.084       .  S
C1154      C1155   1.398       .  A
C1155      H1164   1.080       .  S
C1155      C1156   1.408       .  A
C1156      C1159   1.501       .  S
C1156      C1157   1.409       .  A
C1157      H1165   1.083       .  S
C1157      C1158   1.407       .  A
C1158      H1166   1.081       .  S
C1159      H1167   1.087       .  S
C1159      C1160   1.352       .  D
C1160      H1168   1.083       .  S
C1161      H1169   1.088       .  S
C1161      C1162   1.355       .  D
C1162      H1170   1.084       .  S
C1171      C1179   1.479       .  S
C1171      C1172   1.402   1_554  A
C1171      C1176   1.406       .  A
C1172      H1181   1.083       .  S
C1172      C1173   1.397       .  A
C1173      H1182   1.082       .  S
C1173      C1174   1.407   1_556  A
C1174      C1177   1.479       .  S
C1174      C1175   1.401       .  A
C1175      H1183   1.084       .  S
C1175      C1176   1.395       .  A
C1176      H1184   1.082       .  S
C1177      H1185   1.087       .  S
C1177      C1178   1.343   1_554  D
C1178      H1186   1.086       .  S
C1179      H1187   1.087   1_554  S
C1179      C1180   1.345       .  D
C1180      H1188   1.086       .  S
C1189      C1197   1.487       .  S
C1189      C1190   1.404       .  A
C1189      C1194   1.409       .  A
C1190      H1199   1.083   1_556  S
C1190      C1191   1.398       .  A
C1191      H1200   1.082       .  S
C1191      C1192   1.406       .  A
C1192      C1195   1.484       .  S
C1192      C1193   1.403       .  A
C1193      H1201   1.083       .  S
C1193      C1194   1.399       .  A
C1194      H1202   1.081       .  S
C1195      H1203   1.087       .  S
C1195      C1196   1.344       .  D
C1196      H1204   1.086   1_556  S
C1197      H1205   1.087       .  S
C1197      C1198   1.347   1_556  D
C1198      H1206   1.085       .  S
C1207      C1215   1.485       .  S
C1207      C1208   1.403       .  A
C1207      C1212   1.409       .  A
C1208      H1217   1.084       .  S
C1208      C1209   1.391       .  A
C1209      H1218   1.082       .  S
C1209      C1210   1.405       .  A
C1210      C1213   1.486       .  S
C1210      C1211   1.405       .  A
C1211      H1219   1.083       .  S
C1211      C1212   1.403       .  A
C1212      H1220   1.080       .  S
C1213      H1221   1.087       .  S
C1213      C1214   1.345       .  D
C1214      H1222   1.086       .  S
C1215      H1223   1.088       .  S
C1215      C1216   1.348       .  D
C1216      H1224   1.083       .  S
C1225      C1233   1.488       .  S
C1225      C1226   1.401       .  A
C1225      C1230   1.408       .  A
C1226      H1235   1.084       .  S
C1226      C1227   1.397       .  A
C1227      H1236   1.080       .  S
C1227      C1228   1.411       .  A
C1228      C1231   1.493       .  S
C1228      C1229   1.404       .  A
C1229      H1237   1.083       .  S
C1229      C1230   1.401       .  A
C1230      H1238   1.081       .  S
C1231      H1239   1.087       .  S
C1231      C1232   1.345       .  D
C1232      H1240   1.083       .  S
C1233      H1241   1.088       .  S
C1233      C1234   1.345       .  D
C1234      H1242   1.085       .  S
C1243      C1251   1.485       .  S
C1243      C1244   1.401   1_556  A
C1243      C1248   1.409   1_545  A
C1244      H1253   1.083       .  S
C1244      C1245   1.397       .  A
C1245      H1254   1.082       .  S
C1245      C1246   1.409   1_544  A
C1246      C1249   1.488       .  S
C1246      C1247   1.402       .  A
C1247      H1255   1.083       .  S
C1247      C1248   1.402       .  A
C1248      H1256   1.082       .  S
C1249      H1257   1.086       .  S
C1249      C1250   1.343   1_565  D
C1250      H1258   1.087       .  S
C1251      H1259   1.087   1_556  S
C1251      C1252   1.344       .  D
C1252      H1260   1.086       .  S
C1261      C1269   1.493   1_565  S
C1261      C1262   1.404   1_565  A
C1261      C1266   1.410       .  A
C1262      H1271   1.083       .  S
C1262      C1263   1.401       .  A
C1263      H1272   1.083       .  S
C1263      C1264   1.404   1_545  A
C1264      C1267   1.491       .  S
C1264      C1265   1.407       .  A
C1265      H1273   1.082       .  S
C1265      C1266   1.398       .  A
C1266      H1274   1.080       .  S
C1267      H1275   1.087       .  S
C1267      C1268   1.347       .  D
C1268      H1276   1.085       .  S
C1269      H1277   1.087       .  S
C1269      C1270   1.346   1_545  D
C1270      H1278   1.084       .  S
C1279      C1287   1.487       .  S
C1279      C1280   1.403       .  A
C1279      C1284   1.408       .  A
C1280      H1289   1.083       .  S
C1280      C1281   1.402       .  A
C1281      H1290   1.082       .  S
C1281      C1282   1.409       .  A
C1282      C1285   1.485       .  S
C1282      C1283   1.401       .  A
C1283      H1291   1.084       .  S
C1283      C1284   1.396       .  A
C1284      H1292   1.082       .  S
C1285      H1293   1.087       .  S
C1285      C1286   1.345       .  D
C1286      H1294   1.084       .  S
C1287      H1295   1.087       .  S
C1287      C1288   1.345       .  D
C1288      H1296   1.086       .  S
C1297      C1305   1.490       .  S
C1297      C1298   1.405       .  A
C1297      C1302   1.408       .  A
C1298      H1307   1.084       .  S
C1298      C1299   1.396       .  A
C1299      H1308   1.081       .  S
C1299      C1300   1.406       .  A
C1300      C1303   1.491       .  S
C1300      C1301   1.406       .  A
C1301      H1309   1.083       .  S
C1301      C1302   1.402       .  A
C1302      H1310   1.080       .  S
C1303      H1311   1.087       .  S
C1303      C1304   1.349       .  D
C1304      H1312   1.084       .  S
C1305      H1313   1.087       .  S
C1305      C1306   1.350       .  D
C1306      H1314   1.083       .  S
C1315      C1323   1.494       .  S
C1315      C1316   1.405       .  A
C1315      C1320   1.408       .  A
C1316      H1325   1.084       .  S
C1316      C1317   1.399       .  A
C1317      H1326   1.080       .  S
C1317      C1318   1.410       .  A
C1318      C1321   1.501       .  S
C1318      C1319   1.407       .  A
C1319      H1327   1.083       .  S
C1319      C1320   1.405       .  A
C1320      H1328   1.081       .  S
C1321      H1329   1.086       .  S
C1321      C1322   1.349       .  D
C1322      H1330   1.083       .  S
C1323      H1331   1.087       .  S
C1323      C1324   1.353       .  D
C1324      H1332   1.083       .  S
C1333      C1341   1.483       .  S
C1333      C1334   1.401       .  A
C1333      C1338   1.409       .  A
C1334      H1343   1.083       .  S
C1334      C1335   1.398       .  A
C1335      H1344   1.081       .  S
C1335      C1336   1.408       .  A
C1336      C1339   1.481       .  S
C1336      C1337   1.400       .  A
C1337      H1345   1.084       .  S
C1337      C1338   1.395       .  A
C1338      H1346   1.082       .  S
C1339      H1347   1.087       .  S
C1339      C1340   1.342       .  D
C1340      H1348   1.085       .  S
C1341      H1349   1.087       .  S
C1341      C1342   1.341       .  D
C1342      H1350   1.086       .  S
C1351      C1359   1.479       .  S
C1351      C1352   1.403       .  A
C1351      C1356   1.406       .  A
C1352      H1361   1.083       .  S
C1352      C1353   1.397       .  A
C1353      H1362   1.082       .  S
C1353      C1354   1.406       .  A
C1354      C1357   1.480       .  S
C1354      C1355   1.402       .  A
C1355      H1363   1.083       .  S
C1355      C1356   1.396       .  A
C1356      H1364   1.082       .  S
C1357      H1365   1.087       .  S
C1357      C1358   1.343       .  D
C1358      H1366   1.086       .  S
C1359      H1367   1.087   1_545  S
C1359      C1360   1.346   1_545  D
C1360      H1368   1.086       .  S
C1369      C1377   1.482       .  S
C1369      C1370   1.403       .  A
C1369      C1374   1.407       .  A
C1370      H1379   1.083       .  S
C1370      C1371   1.398       .  A
C1371      H1380   1.082       .  S
C1371      C1372   1.405       .  A
C1372      C1375   1.481       .  S
C1372      C1373   1.402       .  A
C1373      H1381   1.083       .  S
C1373      C1374   1.397       .  A
C1374      H1382   1.082       .  S
C1375      H1383   1.087       .  S
C1375      C1376   1.343       .  D
C1376      H1384   1.086       .  S
C1377      H1385   1.087       .  S
C1377      C1378   1.346       .  D
C1378      H1386   1.086       .  S
C1387      C1395   1.487       .  S
C1387      C1388   1.402       .  A
C1387      C1392   1.408       .  A
C1388      H1397   1.084   1_565  S
C1388      C1389   1.397       .  A
C1389      H1398   1.080       .  S
C1389      C1390   1.409       .  A
C1390      C1393   1.493       .  S
C1390      C1391   1.406       .  A
C1391      H1399   1.083       .  S
C1391      C1392   1.403       .  A
C1392      H1400   1.082       .  S
C1393      H1401   1.087       .  S
C1393      C1394   1.347       .  D
C1394      H1402   1.084       .  S
C1395      H1403   1.088   1_565  S
C1395      C1396   1.346       .  D
C1396      H1404   1.085       .  S
C1405      C1413   1.491       .  S
C1405      C1406   1.405       .  A
C1405      C1410   1.407       .  A
C1406      H1415   1.083       .  S
C1406      C1407   1.400       .  A
C1407      H1416   1.080       .  S
C1407      C1408   1.408       .  A
C1408      C1411   1.494       .  S
C1408      C1409   1.407       .  A
C1409      H1417   1.083       .  S
C1409      C1410   1.402       .  A
C1410      H1418   1.081       .  S
C1411      H1419   1.087       .  S
C1411      C1412   1.351       .  D
C1412      H1420   1.083       .  S
C1413      H1421   1.087       .  S
C1413      C1414   1.351       .  D
C1414      H1422   1.084       .  S
C1423      C1431   1.490       .  S
C1423      C1424   1.405       .  A
C1423      C1428   1.408       .  A
C1424      H1433   1.083       .  S
C1424      C1425   1.402       .  A
C1425      H1434   1.081       .  S
C1425      C1426   1.409       .  A
C1426      C1429   1.488       .  S
C1426      C1427   1.402       .  A
C1427      H1435   1.084       .  S
C1427      C1428   1.396       .  A
C1428      H1436   1.081       .  S
C1429      H1437   1.088       .  S
C1429      C1430   1.346       .  D
C1430      H1438   1.084       .  S
C1431      H1439   1.087       .  S
C1431      C1432   1.347       .  D
C1432      H1440   1.085       .  S
C1441      C1449   1.487       .  S
C1441      C1442   1.408       .  A
C1441      C1446   1.402       .  A
C1442      H1451   1.082       .  S
C1442      C1443   1.401       .  A
C1443      H1452   1.082       .  S
C1443      C1444   1.408       .  A
C1444      C1447   1.487       .  S
C1444      C1445   1.403       .  A
C1445      H1453   1.083       .  S
C1445      C1446   1.397       .  A
C1446      H1454   1.083       .  S
C1447      H1455   1.087       .  S
C1447      C1448   1.345       .  D
C1448      H1456   1.085       .  S
C1449      H1457   1.087       .  S
C1449      C1450   1.345       .  D
C1450      H1458   1.085       .  S
C1459      C1467   1.480       .  S
C1459      C1460   1.402       .  A
C1459      C1464   1.406       .  A
C1460      H1469   1.083       .  S
C1460      C1461   1.400       .  A
C1461      H1470   1.082       .  S
C1461      C1462   1.407       .  A
C1462      C1465   1.480       .  S
C1462      C1463   1.401       .  A
C1463      H1471   1.083       .  S
C1463      C1464   1.395       .  A
C1464      H1472   1.083       .  S
C1465      H1473   1.087       .  S
C1465      C1466   1.342       .  D
C1466      H1474   1.086       .  S
C1467      H1475   1.087   1_655  S
C1467      C1468   1.344   1_655  D
C1468      H1476   1.087   1_455  S
C1477      C1485   1.489       .  S
C1477      C1478   1.403       .  A
C1477      C1482   1.408       .  A
C1478      H1487   1.084       .  S
C1478      C1479   1.397       .  A
C1479      H1488   1.081       .  S
C1479      C1480   1.408       .  A
C1480      C1483   1.493       .  S
C1480      C1481   1.406       .  A
C1481      H1489   1.083       .  S
C1481      C1482   1.403       .  A
C1482      H1490   1.081   1_455  S
C1483      H1491   1.087       .  S
C1483      C1484   1.348       .  D
C1484      H1492   1.084       .  S
C1485      H1493   1.088       .  S
C1485      C1486   1.348       .  D
C1486      H1494   1.084   1_455  S
C1495      C1503   1.494       .  S
C1495      C1496   1.406       .  A
C1495      C1500   1.407       .  A
C1496      H1505   1.083       .  S
C1496      C1497   1.401       .  A
C1497      H1506   1.080       .  S
C1497      C1498   1.408       .  A
C1498      C1501   1.496       .  S
C1498      C1499   1.407       .  A
C1499      H1507   1.083       .  S
C1499      C1500   1.402       .  A
C1500      H1508   1.081       .  S
C1501      H1509   1.087       .  S
C1501      C1502   1.351       .  D
C1502      H1510   1.083       .  S
C1503      H1511   1.087       .  S
C1503      C1504   1.353       .  D
C1504      H1512   1.083       .  S
C1513      C1521   1.487       .  S
C1513      C1514   1.403       .  A
C1513      C1518   1.406       .  A
C1514      H1523   1.084       .  S
C1514      C1515   1.397       .  A
C1515      H1524   1.079       .  S
C1515      C1516   1.409       .  A
C1516      C1519   1.495   1_655  S
C1516      C1517   1.407       .  A
C1517      H1525   1.083       .  S
C1517      C1518   1.402       .  A
C1518      H1526   1.081       .  S
C1519      H1527   1.087       .  S
C1519      C1520   1.350       .  D
C1520      H1528   1.082       .  S
C1521      H1529   1.088       .  S
C1521      C1522   1.349       .  D
C1522      H1530   1.084       .  S
C1531      C1539   1.496       .  S
C1531      C1532   1.406       .  A
C1531      C1536   1.408       .  A
C1532      H1541   1.083       .  S
C1532      C1533   1.408       .  A
C1533      H1542   1.082       .  S
C1533      C1534   1.409       .  A
C1534      C1537   1.492       .  S
C1534      C1535   1.402       .  A
C1535      H1543   1.084       .  S
C1535      C1536   1.398       .  A
C1536      H1544   1.083       .  S
C1537      H1545   1.087       .  S
C1537      C1538   1.348       .  D
C1538      H1546   1.085       .  S
C1539      H1547   1.086       .  S
C1539      C1540   1.348       .  D
C1540      H1548   1.087       .  S
C1549      C1557   1.503       .  S
C1549      C1550   1.407       .  A
C1549      C1554   1.411       .  A
C1550      H1559   1.083       .  S
C1550      C1551   1.404       .  A
C1551      H1560   1.080       .  S
C1551      C1552   1.410       .  A
C1552      C1555   1.501       .  S
C1552      C1553   1.406       .  A
C1553      H1561   1.083       .  S
C1553      C1554   1.402       .  A
C1554      H1562   1.079       .  S
C1555      H1563   1.087       .  S
C1555      C1556   1.352       .  D
C1556      H1564   1.083       .  S
C1557      H1565   1.087       .  S
C1557      C1558   1.350       .  D
C1558      H1566   1.082       .  S
C1567      C1575   1.485       .  S
C1567      C1568   1.407       .  A
C1567      C1572   1.403   1_565  A
C1568      H1577   1.083       .  S
C1568      C1569   1.405   1_565  A
C1569      H1578   1.082       .  S
C1569      C1570   1.406       .  A
C1570      C1573   1.485       .  S
C1570      C1571   1.405       .  A
C1571      H1579   1.084       .  S
C1571      C1572   1.396       .  A
C1572      H1580   1.083       .  S
C1573      H1581   1.086       .  S
C1573      C1574   1.353       .  D
C1574      H1582   1.084       .  S
C1575      H1583   1.087       .  S
C1575      C1576   1.347       .  D
C1576      H1584   1.086       .  S
C1585      C1593   1.485       .  S
C1585      C1586   1.404       .  A
C1585      C1590   1.406       .  A
C1586      H1595   1.083       .  S
C1586      C1587   1.401       .  A
C1587      H1596   1.080       .  S
C1587      C1588   1.408       .  A
C1588      C1591   1.485       .  S
C1588      C1589   1.403       .  A
C1589      H1597   1.084       .  S
C1589      C1590   1.393       .  A
C1590      H1598   1.082       .  S
C1591      H1599   1.088       .  S
C1591      C1592   1.348       .  D
C1592      H1600   1.083       .  S
C1593      H1601   1.087       .  S
C1593      C1594   1.344       .  D
C1594      H1602   1.085       .  S
C1603      C1611   1.489       .  S
C1603      C1604   1.406       .  A
C1603      C1608   1.406       .  A
C1604      H1613   1.083       .  S
C1604      C1605   1.399       .  A
C1605      H1614   1.081       .  S
C1605      C1606   1.406       .  A
C1606      C1609   1.487       .  S
C1606      C1607   1.405       .  A
C1607      H1615   1.084       .  S
C1607      C1608   1.397       .  A
C1608      H1616   1.080       .  S
C1609      H1617   1.088       .  S
C1609      C1610   1.349       .  D
C1610      H1618   1.084       .  S
C1611      H1619   1.087       .  S
C1611      C1612   1.350       .  D
C1612      H1620   1.084       .  S
C1621      C1629   1.486       .  S
C1621      C1622   1.402       .  A
C1621      C1626   1.408       .  A
C1622      H1631   1.084       .  S
C1622      C1623   1.396   1_545  A
C1623      H1632   1.081       .  S
C1623      C1624   1.408       .  A
C1624      C1627   1.487       .  S
C1624      C1625   1.403   1_565  A
C1625      H1633   1.083       .  S
C1625      C1626   1.400       .  A
C1626      H1634   1.081       .  S
C1627      H1635   1.087       .  S
C1627      C1628   1.345       .  D
C1628      H1636   1.085       .  S
C1629      H1637   1.087       .  S
C1629      C1630   1.345       .  D
C1630      H1638   1.084       .  S
C1639      C1647   1.492       .  S
C1639      C1640   1.406       .  A
C1639      C1644   1.408       .  A
C1640      H1649   1.083       .  S
C1640      C1641   1.401       .  A
C1641      H1650   1.082       .  S
C1641      C1642   1.406       .  A
C1642      C1645   1.491       .  S
C1642      C1643   1.405       .  A
C1643      H1651   1.083       .  S
C1643      C1644   1.403       .  A
C1644      H1652   1.082       .  S
C1645      H1653   1.087       .  S
C1645      C1646   1.348       .  D
C1646      H1654   1.086       .  S
C1647      H1655   1.087       .  S
C1647      C1648   1.350       .  D
C1648      H1656   1.085       .  S
C1657      C1665   1.492       .  S
C1657      C1658   1.406       .  A
C1657      C1662   1.407       .  A
C1658      H1667   1.083       .  S
C1658      C1659   1.399       .  A
C1659      H1668   1.082       .  S
C1659      C1660   1.405       .  A
C1660      C1663   1.491       .  S
C1660      C1661   1.406       .  A
C1661      H1669   1.083       .  S
C1661      C1662   1.404       .  A
C1662      H1670   1.082       .  S
C1663      H1671   1.087       .  S
C1663      C1664   1.348   1_655  D
C1664      H1672   1.086       .  S
C1665      H1673   1.087       .  S
C1665      C1666   1.352       .  D
C1666      H1674   1.085       .  S
C1675      C1683   1.490       .  S
C1675      C1676   1.403       .  A
C1675      C1680   1.409       .  A
C1676      H1685   1.084       .  S
C1676      C1677   1.396       .  A
C1677      H1686   1.081       .  S
C1677      C1678   1.408       .  A
C1678      C1681   1.493       .  S
C1678      C1679   1.405       .  A
C1679      H1687   1.083       .  S
C1679      C1680   1.404       .  A
C1680      H1688   1.081       .  S
C1681      H1689   1.087       .  S
C1681      C1682   1.347       .  D
C1682      H1690   1.085       .  S
C1683      H1691   1.088       .  S
C1683      C1684   1.349       .  D
C1684      H1692   1.084       .  S
C1693      C1701   1.491       .  S
C1693      C1694   1.405       .  A
C1693      C1698   1.408       .  A
C1694      H1703   1.084       .  S
C1694      C1695   1.398       .  A
C1695      H1704   1.081       .  S
C1695      C1696   1.407       .  A
C1696      C1699   1.490       .  S
C1696      C1697   1.404       .  A
C1697      H1705   1.083       .  S
C1697      C1698   1.400       .  A
C1698      H1706   1.080       .  S
C1699      H1707   1.087       .  S
C1699      C1700   1.347       .  D
C1700      H1708   1.084       .  S
C1701      H1709   1.087       .  S
C1701      C1702   1.351       .  D
C1702      H1710   1.082       .  S
C1711      C1719   1.491       .  S
C1711      C1712   1.406       .  A
C1711      C1716   1.405   1_455  A
C1712      H1721   1.083       .  S
C1712      C1713   1.407   1_455  A
C1713      H1722   1.080   1_655  S
C1713      C1714   1.410       .  A
C1714      C1717   1.491       .  S
C1714      C1715   1.404       .  A
C1715      H1723   1.084       .  S
C1715      C1716   1.393       .  A
C1716      H1724   1.083       .  S
C1717      H1725   1.088       .  S
C1717      C1718   1.351       .  D
C1718      H1726   1.083       .  S
C1719      H1727   1.086       .  S
C1719      C1720   1.345       .  D
C1720      H1728   1.087       .  S
C1729      C1737   1.493       .  S
C1729      C1730   1.405       .  A
C1729      C1734   1.408       .  A
C1730      H1739   1.083       .  S
C1730      C1731   1.403       .  A
C1731      H1740   1.081       .  S
C1731      C1732   1.408       .  A
C1732      C1735   1.490       .  S
C1732      C1733   1.403       .  A
C1733      H1741   1.084       .  S
C1733      C1734   1.398       .  A
C1734      H1742   1.081       .  S
C1735      H1743   1.087       .  S
C1735      C1736   1.349       .  D
C1736      H1744   1.084       .  S
C1737      H1745   1.087       .  S
C1737      C1738   1.348       .  D
C1738      H1746   1.085       .  S
