geometry optimzed in LAMMPS
_audit_creation_date              2020-11-30 
_audit_creation_method            'lammps2cif' 
_symmetry_space_group_name_H-M    'P1' 
_symmetry_Int_Tables_number       1 
_symmetry_cell_setting            triclinic 
loop_ 
_symmetry_equiv_pos_as_xyz 
  x,y,z 
_cell_length_a                    46.14574391 
_cell_length_b                    39.398322491267855 
_cell_length_c                    44.67063035024598 
_cell_angle_alpha                 90.01373754662396 
_cell_angle_beta                  124.23318528046916 
_cell_angle_gamma                 90.44300456209709 
loop_ 
_atom_site_label 
_atom_site_type_symbol 
_atom_site_fract_x 
_atom_site_fract_y 
_atom_site_fract_z 
_atom_site_charge 
N1          N  0.86644874  0.23754251  0.67648665    -0.02000
C2          C  0.88717794  0.26236547  0.67676471     0.00600
C3          C  0.92066702  0.26055591  0.70791727    -0.22300
C4          C  0.92063822  0.23389625  0.72762325    -0.22500
C5          C  0.88716694  0.22032718  0.70788300     0.00500
H6          H  0.94308622  0.27609928  0.71482213     0.14200
H7          H  0.94283648  0.22479646  0.75318357     0.14300
Zr8        Zr  0.42873759  0.15177033  0.43778599     2.17500
O9          O  0.42168029  0.09077045  0.44113879    -0.49900
O10         O  0.36641276  0.16330070  0.40002821    -0.73100
O11         O  0.41216868  0.13815013  0.47927386    -0.79900
O12         O  0.44461874  0.13918439  0.36431126    -0.81600
O13         O  0.43824849  0.17517073  0.52648668    -0.77200
O14         O  0.41626239  0.11560870  0.38744161    -0.88900
O15         O  0.35871742  0.21939988  0.38686120    -0.74800
O16         O  0.42191460  0.20498962  0.45813975    -0.84300
O17         O  0.42275918  0.19249206  0.39543286    -0.84000
O18         O  0.48066083  0.15937821  0.49782765    -0.70800
O19         O  0.48189861  0.14840615  0.44024450    -0.82900
Zr20       Zr  0.52154098  0.25205804  0.47727559     2.26400
Zr21       Zr  0.47419152  0.21385517  0.51722114     2.06300
Zr22       Zr  0.47593780  0.18998490  0.39823874     2.10000
Zr23       Zr  0.41646632  0.24566162  0.41614096     1.78800
O24         O  0.51427578  0.15470850  0.39028941    -0.91700
O25         O  0.38817371  0.27583456  0.44057573    -0.39500
O26         O  0.46927545  0.24432493  0.41747104    -0.76200
O27         O  0.46849376  0.25587370  0.47540098    -0.94800
O28         O  0.52721955  0.21159976  0.51971551    -0.88100
O29         O  0.52777880  0.19846992  0.45719409    -0.91000
C30         C  0.34690661  0.18932955  0.38506218     1.02800
C31         C  0.42550908  0.11582920  0.36513493     1.15700
C32         C  0.41836923  0.14934903  0.50935144     1.06500
O33         O  0.43959039  0.24997172  0.52974673    -0.93100
O34         O  0.51079632  0.26111985  0.55539618    -0.88900
O35         O  0.54167280  0.28185054  0.53366953    -0.82000
C36         C  0.53358064  0.28140891  0.55692536     1.13100
O37         O  0.53184813  0.09726724  0.50833769    -0.95100
Zr38       Zr  0.53359800  0.15821258  0.49974698     1.88900
O39         O  0.58420521  0.24097320  0.51271210    -0.71800
O40         O  0.51196931  0.19236553  0.57868031    -0.51000
O41         O  0.55969659  0.14649466  0.56358680    -0.95700
O42         O  0.56591118  0.12472196  0.48203925    -0.52900
O43         O  0.59103662  0.18537461  0.52828831    -0.72300
C44         C  0.60335846  0.21489533  0.52872581     1.00100
O45         O  0.52225006  0.31343333  0.47049073    -0.61100
O46         O  0.43938630  0.20863720  0.33552672    -0.55900
O47         O  0.53928113  0.26549632  0.43655327    -0.92600
O48         O  0.51072700  0.22944141  0.38846544    -0.91000
O49         O  0.38481205  0.25995964  0.35217885    -0.91400
O50         O  0.41514309  0.30636646  0.40516739    -0.90200
C51         C  0.53189260  0.25437593  0.40591713     1.18900
H52         H  0.40266711  0.18737215  0.37127383     0.34800
H53         H  0.46701122  0.27813873  0.48348573     0.45700
H54         H  0.54802766  0.19816450  0.45600607     0.39200
H55         H  0.48185576  0.14181354  0.51355133     0.35700
H56         H  0.36736183  0.28644314  0.41927740     0.27500
H57         H  0.50057223  0.19947529  0.59092236     0.33400
H58         H  0.57401961  0.16688341  0.57663566     0.39300
H59         H  0.40331962  0.26445664  0.34787292     0.33800
H60         H  0.44653210  0.19428219  0.32258275     0.32700
H61         H  0.51055446  0.16245307  0.36729896     0.34400
H62         H  0.58764979  0.11798705  0.50513095     0.33300
H63         H  0.43969490  0.31247230  0.41448815     0.37300
H64         H  0.50982197  0.31720842  0.44411676     0.30100
H65         H  0.39769985  0.08753756  0.43525756     0.34300
H66         H  0.55547929  0.09132723  0.52946145     0.37100
H67         H  0.41540737  0.20064432  0.32656414     0.29800
H68         H  0.50595057  0.32225820  0.47635064     0.42600
H69         H  0.44728471  0.24405588  0.55471825     0.32700
H70         H  0.37834180  0.25778469  0.44789779     0.40300
H71         H  0.57394274  0.14120331  0.47139577     0.32100
H72         H  0.50882809  0.16740367  0.57632329     0.32200
H73         H  0.43753210  0.08500276  0.46711221     0.32500
N74         N  0.08717490  0.14308357  0.23091165    -0.02000
C75         C  0.06872906  0.11803793  0.23393846     0.00600
C76         C  0.03546010  0.11525748  0.20262821    -0.22300
C77         C  0.03320627  0.13961616  0.17945786    -0.22500
C78         C  0.06525933  0.15634301  0.19741839     0.00500
H79         H  0.01452685  0.09856837  0.19793377     0.14200
H80         H  0.01028726  0.14527588  0.15283050     0.14300
N81         N  0.59817490  0.39818852  0.23929991    -0.02000
C82         C  0.57450856  0.38089455  0.24251986     0.00600
C83         C  0.54152894  0.38290822  0.21064295    -0.22300
C84         C  0.54491779  0.40233742  0.18723242    -0.22500
C85         C  0.57984378  0.41173830  0.20555630     0.00500
H86         H  0.51733308  0.37252823  0.20549984     0.14200
H87         H  0.52378292  0.41051175  0.16056967     0.14300
Zr88       Zr  0.93928184  0.39667065  0.44773023     2.17500
O89         O  0.92730147  0.33647117  0.44925122    -0.49900
O90         O  0.87749253  0.40992297  0.41573973    -0.73100
O91         O  0.93276989  0.38197681  0.49650202    -0.79900
O92         O  0.94160582  0.38503801  0.36483532    -0.81600
O93         O  0.95969886  0.42230262  0.54076252    -0.77200
O94         O  0.92194793  0.35983779  0.39609759    -0.88900
O95         O  0.86998572  0.46502493  0.39834491    -0.74800
O96         O  0.93711846  0.45067430  0.47051024    -0.84300
O97         O  0.92892623  0.43734333  0.40329780    -0.84000
O98         O  0.99521947  0.40338477  0.50446482    -0.70800
O99         O  0.98731741  0.39130248  0.44147858    -0.82900
Zr100      Zr  0.03272077  0.49418995  0.47757044     2.26400
Zr101      Zr  0.99318422  0.45841063  0.52624077     2.06300
Zr102      Zr  0.97777912  0.43363513  0.39851802     2.10000
Zr103      Zr  0.92779739  0.49116692  0.42650070     1.78800
O104        O  0.00708501  0.39864033  0.37845738    -0.91700
O105        O  0.90090182  0.01862829  0.45682742    -0.39500
O106        O  0.97653146  0.48826068  0.42094975    -0.76200
O107        O  0.98372267  0.50014252  0.48276052    -0.94800
O108        O  0.04173411  0.45324248  0.52111379    -0.88100
O109        O  0.03380126  0.44035732  0.45407659    -0.91000
C110        C  0.85813813  0.43562318  0.39903066     1.02800
C111        C  0.92493404  0.36152474  0.36918840     1.15700
C112        C  0.94099214  0.39529789  0.52653215     1.06500
O113        O  0.96255462  0.49774107  0.54109620    -0.93100
O114        O  0.03207194  0.00051071  0.56350693    -0.88900
O115        O  0.05416209  0.02443587  0.53413678    -0.82000
C116        C  0.05081204  0.02290093  0.56074248     1.13100
O117        O  0.04080003  0.33976742  0.51035955    -0.95100
Zr118      Zr  0.04287741  0.39955991  0.49752933     1.88900
O119        O  0.09480690  0.48063971  0.51152272    -0.71800
O120        O  0.03050873  0.43670587  0.58764878    -0.51000
O121        O  0.08092499  0.38510350  0.56143712    -0.95700
O122        O  0.06167703  0.36482464  0.46627846    -0.52900
O123        O  0.10026197  0.42385384  0.52083635    -0.72300
C124        C  0.11326371  0.45359827  0.52407373     1.00100
O125        O  0.02821094  0.05316378  0.46740854    -0.61100
O126        O  0.93726267  0.45679700  0.33823538    -0.55900
O127        O  0.04202392  0.00639076  0.43361999    -0.92600
O128        O  0.01074559  0.47074279  0.38474623    -0.91000
O129        O  0.90053299  0.50874275  0.36391369    -0.91400
O130        O  0.92342937  0.04790196  0.42107646    -0.90200
C131        C  0.03324188  0.49499970  0.40025868     1.18900
H132        H  0.90735378  0.43253660  0.38014147     0.34800
H133        H  0.98167153  0.01810287  0.49427225     0.45700
H134        H  0.05221003  0.43929646  0.44996461     0.39200
H135        H  0.99837315  0.38612742  0.52139127     0.35700
H136        H  0.87538636  0.01938974  0.43803677     0.27500
H137        H  0.05446056  0.43734589  0.59306115     0.33400
H138        H  0.09032549  0.40711217  0.57417382     0.39300
H139        H  0.88447506  0.48984989  0.34913303     0.33800
H140        H  0.94516134  0.44747502  0.32340636     0.32700
H141        H  0.99442706  0.40302346  0.35216268     0.34400
H142        H  0.07522669  0.38038941  0.46105285     0.33300
H143        H  0.94594842  0.05365052  0.42429608     0.37300
H144        H  0.00995221  0.05572466  0.44121917     0.30100
H145        H  0.90585088  0.33532324  0.44925087     0.34300
H146        H  0.06424436  0.33073192  0.51907669     0.37100
H147        H  0.91461872  0.44514130  0.32895169     0.29800
H148        H  0.01752734  0.06334009  0.47925554     0.42600
H149        H  0.97533207  0.49664138  0.56778486     0.32700
H150        H  0.89271512  0.50479325  0.46129071     0.40300
H151        H  0.03996429  0.35980128  0.44229049     0.32100
H152        H  0.03064682  0.45467926  0.60322685     0.32200
H153        H  0.94643780  0.32841366  0.47347648     0.32500
N154        N  0.37601678  0.47209053  0.67027817    -0.02000
C155        C  0.39558776  0.99049355  0.66311637     0.00600
C156        C  0.43072588  0.98710739  0.69023236    -0.22300
C157        C  0.43248280  0.46425813  0.71571170    -0.22500
C158        C  0.39796733  0.45702261  0.70269981     0.00500
H159        H  0.45268016  0.99792531  0.69082847     0.14200
H160        H  0.45557473  0.45510711  0.74052613     0.14300
N161        N  0.90389952  0.15563629  0.19369364    -0.02000
C162        C  0.92672405  0.13448506  0.19299767     0.00600
C163        C  0.96057015  0.14142174  0.22228960    -0.22300
C164        C  0.95853987  0.16747906  0.24139891    -0.22500
C165        C  0.92355633  0.17583225  0.22332733     0.00500
H166        H  0.98447391  0.12980742  0.22833175     0.14200
H167        H  0.98036068  0.17955660  0.26548267     0.14300
Zr168      Zr  0.55978460  0.14709393  0.99210912     2.17500
O169        O  0.55943908  0.08576395  0.98452619    -0.49900
O170        O  0.62259694  0.15709459  0.02910590    -0.73100
O171        O  0.57623429  0.13406606  0.95031193    -0.79900
O172        O  0.54988106  0.13780980  0.06954424    -0.81600
O173        O  0.54943633  0.17187106  0.90436000    -0.77200
O174        O  0.57696463  0.11373685  0.04546246    -0.88900
O175        O  0.63133036  0.21332574  0.04275196    -0.74800
O176        O  0.56725915  0.20065088  0.97237642    -0.84300
O177        O  0.56776705  0.18784980  0.03549260    -0.84000
O178        O  0.50700983  0.15524095  0.93299938    -0.70800
O179        O  0.50781709  0.14396554  0.99223248    -0.82900
Zr180      Zr  0.46957145  0.24803762  0.95660108     2.26400
Zr181      Zr  0.51433467  0.20988035  0.91436438     2.06300
Zr182      Zr  0.51569796  0.18618370  0.03473390     2.10000
Zr183      Zr  0.57474225  0.24103221  0.01575560     1.78800
O184        O  0.47904832  0.15108732  0.04585624    -0.91700
O185        O  0.60574488  0.27624688  0.99737959    -0.39500
O186        O  0.52260654  0.24031570  0.01549864    -0.76200
O187        O  0.52206991  0.25161238  0.95720763    -0.94800
O188        O  0.46220118  0.20722651  0.91353797    -0.88100
O189        O  0.46288406  0.19451724  0.97676824    -0.91000
C190        C  0.64256308  0.18316255  0.04436154     1.02800
C191        C  0.56944751  0.11514090  0.06912319     1.15700
C192        C  0.56960396  0.14644216  0.92047455     1.06500
O193        O  0.54989961  0.24898259  0.90534222    -0.93100
O194        O  0.47659387  0.25578649  0.87622590    -0.88900
O195        O  0.44993816  0.27885938  0.90126010    -0.82000
C196        C  0.45580239  0.27722054  0.87637587     1.13100
O197        O  0.45416362  0.09347648  0.92179196    -0.95100
Zr198      Zr  0.45543453  0.15396076  0.93363811     1.88900
O199        O  0.40628736  0.23713081  0.91955011    -0.71800
O200        O  0.47963789  0.19049635  0.85158975    -0.51000
O201        O  0.42506178  0.14234927  0.86911282    -0.95700
O202        O  0.42500156  0.11944999  0.95329229    -0.52900
O203        O  0.39880525  0.18081280  0.90651638    -0.72300
C204        C  0.38677891  0.21058782  0.90455563     1.00100
O205        O  0.47248424  0.30905309  0.96751744    -0.61100
O206        O  0.55338867  0.20680826  0.09691229    -0.55900
O207        O  0.45372127  0.26200145  0.99872550    -0.92600
O208        O  0.48183954  0.22504402  0.04549388    -0.91000
O209        O  0.60225222  0.25081598  0.08021901    -0.91400
O210        O  0.57855156  0.30144085  0.02914791    -0.90200
C211        C  0.46144382  0.25032688  0.02925463     1.18900
H212        H  0.58813730  0.18275926  0.05933347     0.34800
H213        H  0.52385015  0.27384705  0.94924856     0.45700
H214        H  0.44298911  0.19419098  0.97857904     0.39200
H215        H  0.50485091  0.13787363  0.91657907     0.35700
H216        H  0.63010278  0.27781676  0.01911580     0.27500
H217        H  0.49396241  0.19622302  0.84210002     0.33400
H218        H  0.41302991  0.16375966  0.85707772     0.39300
H219        H  0.62767913  0.25231214  0.09072940     0.33800
H220        H  0.54669797  0.19290844  0.11061722     0.32700
H221        H  0.48398318  0.15941094  0.06922345     0.34400
H222        H  0.41120516  0.13566959  0.95729755     0.33300
H223        H  0.55680154  0.31106062  0.00807151     0.37300
H224        H  0.48990430  0.31172501  0.99393476     0.30100
H225        H  0.58219874  0.08053037  0.98824424     0.34300
H226        H  0.47753706  0.08533249  0.94157003     0.37100
H227        H  0.57721703  0.19904525  0.10552096     0.29800
H228        H  0.48447272  0.31877855  0.95674932     0.42600
H229        H  0.56741718  0.23470131  0.90528112     0.32700
H230        H  0.60739043  0.26189989  0.98020682     0.40300
H231        H  0.44367026  0.11176647  0.97788790     0.32100
H232        H  0.47994716  0.16540128  0.85286762     0.32200
H233        H  0.54174584  0.08155687  0.95842304     0.32500
N234        N  0.12326811  0.23453597  0.75175991    -0.02000
C235        C  0.10395867  0.25462343  0.75886508     0.00600
C236        C  0.06956940  0.25562817  0.72924449    -0.22300
C237        C  0.06732409  0.23538437  0.70310171    -0.22500
C238        C  0.10045088  0.22258995  0.71746100     0.00500
H239        H  0.04808736  0.26869078  0.72743729     0.14200
H240        H  0.04360346  0.22915715  0.67712455     0.14300
N241        N  0.62355716  0.48979285  0.75402428    -0.02000
C242        C  0.59778348  0.00920498  0.75602525     0.00600
C243        C  0.56419572  0.00864147  0.72499484    -0.22300
C244        C  0.56709660  0.48725436  0.70656835    -0.22500
C245        C  0.60060795  0.47545661  0.72110395     0.00500
H246        H  0.54148309  0.02140918  0.72073525     0.14200
H247        H  0.54331087  0.47903552  0.68157160     0.14300
N248        N  0.39984640  0.39537268  0.19700851    -0.02000
C249        C  0.42251610  0.37726412  0.19332169     0.00600
C250        C  0.45544914  0.37754514  0.22526514    -0.22300
C251        C  0.45306181  0.39669044  0.24951181    -0.22500
C252        C  0.41874075  0.40757035  0.23146327     0.00500
H253        H  0.47883376  0.36583664  0.23006687     0.14200
H254        H  0.47450411  0.40354100  0.27670333     0.14300
Zr255      Zr  0.05590856  0.39448975  0.98647418     2.17500
O256        O  0.05826666  0.33344470  0.97909296    -0.49900
O257        O  0.11881655  0.40288889  0.02192019    -0.73100
O258        O  0.07094659  0.38174960  0.94352182    -0.79900
O259        O  0.04161163  0.38117651  0.06186478    -0.81600
O260        O  0.04870156  0.42246325  0.90027089    -0.77200
O261        O  0.06754255  0.35779694  0.03601739    -0.88900
O262        O  0.12970347  0.45909266  0.03393437    -0.74800
O263        O  0.06541140  0.44814905  0.96880105    -0.84300
O264        O  0.06569723  0.43386708  0.03182745    -0.84000
O265        O  0.00389692  0.40506115  0.92754141    -0.70800
O266        O  0.00414214  0.39257741  0.98677691    -0.82900
Zr267      Zr  0.96990775  0.49765548  0.95483383     2.26400
Zr268      Zr  0.01332832  0.45994708  0.91090687     2.06300
Zr269      Zr  0.01343412  0.43362620  0.03102123     2.10000
Zr270      Zr  0.07462529  0.48731489  0.01371744     1.78800
O271        O  0.97719413  0.40300009  0.04599639    -0.91700
O272        O  0.09812914  0.02366431  0.99038621    -0.39500
O273        O  0.02246739  0.48765419  0.01346472    -0.76200
O274        O  0.02249680  0.50050634  0.95551274    -0.94800
O275        O  0.96122343  0.45802684  0.91021150    -0.88100
O276        O  0.96102803  0.44404261  0.97309170    -0.91000
C277        C  0.13978481  0.42847017  0.03518252     1.02800
C278        C  0.05942864  0.35786788  0.05926461     1.15700
C279        C  0.06654126  0.39534188  0.91511563     1.06500
O280        O  0.05012048  0.49780156  0.90241420    -0.93100
O281        O  0.97251644  0.00858182  0.87222398    -0.88900
O282        O  0.94376539  0.02937649  0.89614857    -0.82000
C283        C  0.95083704  0.02902047  0.87216553     1.13100
O284        O  0.95014534  0.34452742  0.91432606    -0.95100
Zr285      Zr  0.95255573  0.40454714  0.92857526     1.88900
O286        O  0.90648650  0.48830149  0.91893187    -0.71800
O287        O  0.97928696  0.43833939  0.84901777    -0.51000
O288        O  0.91827875  0.39341140  0.86367789    -0.95700
O289        O  0.92450555  0.37004870  0.95087428    -0.52900
O290        O  0.89702559  0.43292131  0.90222769    -0.72300
C291        C  0.88606343  0.46272719  0.90213722     1.00100
O292        O  0.97051275  0.06067167  0.96162763    -0.61100
O293        O  0.05557101  0.45363377  0.09262809    -0.55900
O294        O  0.95374825  0.01511386  0.99687188    -0.92600
O295        O  0.98087099  0.47396228  0.04264016    -0.91000
O296        O  0.10980568  0.49196051  0.07951144    -0.91400
O297        O  0.07386475  0.04644962  0.03133432    -0.90200
C298        C  0.96315984  0.50111199  0.02785234     1.18900
H299        H  0.08579244  0.42756226  0.05535442     0.34800
H300        H  0.02069759  0.02395178  0.94561136     0.45700
H301        H  0.94110846  0.44417337  0.97482566     0.39200
H302        H  0.00116066  0.38810573  0.91048191     0.35700
H303        H  0.12191867  0.02786569  0.01236285     0.27500
H304        H  0.95456311  0.44024680  0.84111731     0.33400
H305        H  0.89528079  0.38508772  0.85770460     0.39300
H306        H  0.13351889  0.49855725  0.08625323     0.33800
H307        H  0.05344259  0.47866382  0.09114068     0.32700
H308        H  0.98624370  0.41012279  0.07108224     0.34400
H309        H  0.90621247  0.38468566  0.94898974     0.33300
H310        H  0.05417567  0.05829010  0.01010613     0.37300
H311        H  0.98667033  0.06381406  0.98816035     0.30100
H312        H  0.08222972  0.32916343  0.98546422     0.34300
H313        H  0.97399473  0.33616115  0.93256044     0.37100
H314        H  0.04544768  0.44664933  0.10622296     0.29800
H315        H  0.98429420  0.06873332  0.95220675     0.42600
H316        H  0.04671141  0.52067023  0.90908336     0.32700
H317        H  0.10391508  0.51245057  0.97629629     0.40300
H318        H  0.94235923  0.36810986  0.97722481     0.32100
H319        H  0.98211270  0.45574341  0.83483633     0.32200
H320        H  0.04263970  0.32904248  0.95271557     0.32500
C321        C  0.31286974  0.41466880  0.11119218     0.14100
C322        C  0.28955964  0.40458938  0.12043368     0.01100
C323        C  0.30309415  0.39110602  0.15499855     0.16100
C324        C  0.33928492  0.38789211  0.17992413     0.25500
C325        C  0.36259707  0.39831713  0.17086614    -0.40900
C326        C  0.34913145  0.41181503  0.13633702     0.32500
C327        C  0.25132110  0.41019388  0.09520507     0.01100
F328        F  0.28125375  0.38204333  0.16499719    -0.13200
F329        F  0.37114889  0.42369445  0.12763409    -0.13700
C330        C  0.22752932  0.38284599  0.08277580     0.16100
C331        C  0.19134344  0.38857569  0.06188907     0.25500
C332        C  0.17812634  0.42203239  0.05381041    -0.40800
C333        C  0.20227409  0.44924641  0.06502522     0.32400
C334        C  0.23838176  0.44330653  0.08531976     0.14100
F335        F  0.23939587  0.35050460  0.09129076    -0.13200
F336        F  0.19117382  0.48181970  0.05688008    -0.13700
F337        F  0.16946664  0.36122041  0.05049037    -0.16000
F338        F  0.26086878  0.47015529  0.09670363    -0.14500
F339        F  0.30047250  0.42753788  0.07790888    -0.14500
F340        F  0.35170732  0.37461048  0.21304495    -0.15900
C341        C  0.71565377  0.47094483  0.83216119     0.14100
C342        C  0.73485831  0.47951515  0.81749992     0.01100
C343        C  0.71694793  0.49109370  0.78166322     0.16100
C344        C  0.68039677  0.49421946  0.76086309     0.25500
C345        C  0.66119044  0.48635560  0.77572986    -0.40900
C346        C  0.67914391  0.47469906  0.81157375     0.32500
C347        C  0.77346625  0.47550936  0.83927813     0.01100
F348        F  0.73485858  0.49873366  0.76664604    -0.13200
F349        F  0.66121431  0.46587202  0.82621140    -0.13700
C350        C  0.78802521  0.44300078  0.84752008     0.16100
C351        C  0.82438725  0.43888783  0.86797442     0.25500
C352        C  0.84725784  0.46740633  0.88099592    -0.40800
C353        C  0.82810704  0.00422243  0.87810950     0.32400
C354        C  0.79171158  0.00826852  0.85977504     0.14100
F355        F  0.76688140  0.41507868  0.83517314    -0.13200
F356        F  0.84870450  0.03245273  0.88832651    -0.13700
F357        F  0.83697864  0.40676073  0.87498106    -0.16000
F358        F  0.77837962  0.04007672  0.85326230    -0.14500
F359        F  0.73234103  0.45886071  0.86643321    -0.14500
F360        F  0.66367805  0.01753892  0.73500829    -0.15900
C361        C  0.09619100  0.28235946  0.83391749     0.14100
C362        C  0.11445227  0.31338949  0.84411700     0.01100
C363        C  0.13515553  0.32179374  0.83107562     0.16100
C364        C  0.13548234  0.30035626  0.80605233     0.25500
C365        C  0.11479586  0.27063421  0.79369402    -0.40900
C366        C  0.09634882  0.26121674  0.80896647     0.32500
C367        C  0.10719161  0.33838712  0.86384011     0.01100
F368        F  0.15310009  0.35169417  0.84072789    -0.13200
F369        F  0.07567988  0.23295260  0.79699311    -0.13700
C370        C  0.12200242  0.33478035  0.90097910     0.16100
C371        C  0.10989942  0.35430017  0.91801033     0.25500
C372        C  0.08243825  0.37776561  0.89806599    -0.40800
C373        C  0.06882310  0.38229479  0.86106623     0.32400
C374        C  0.08087705  0.36255441  0.84415466     0.14100
F375        F  0.14717139  0.31126917  0.92042320    -0.13200
F376        F  0.04227946  0.40426027  0.84054639    -0.13700
F377        F  0.12459239  0.34954872  0.95390234    -0.17200
F378        F  0.06512677  0.36535408  0.80786352    -0.14500
F379        F  0.07551129  0.27404210  0.84558145    -0.14500
F380        F  0.15322973  0.31015301  0.79143659    -0.15900
C381        C  0.21759917  0.23577570  0.78252670     0.14100
C382        C  0.23450938  0.22215412  0.81756426     0.01100
C383        C  0.21403472  0.21188309  0.83037394     0.16100
C384        C  0.17746091  0.21565855  0.80872515     0.25500
C385        C  0.16077123  0.22991784  0.77403906    -0.40900
C386        C  0.18115073  0.23976769  0.76109195     0.32500
C387        C  0.27346287  0.21932482  0.84075764     0.01100
F388        F  0.22954887  0.19892131  0.86417306    -0.13200
F389        F  0.16571702  0.25409734  0.72791241    -0.13700
C390        C  0.29481859  0.24831125  0.84931267     0.16100
C391        C  0.33148828  0.24574593  0.87029370     0.25500
C392        C  0.34776976  0.21400449  0.88340433    -0.40800
C393        C  0.32613646  0.18507931  0.87534607     0.32400
C394        C  0.28952669  0.18772729  0.85412838     0.14100
F395        F  0.28006704  0.27932717  0.83757348    -0.13200
F396        F  0.34028829  0.15403956  0.88830908    -0.13700
F397        F  0.35089761  0.27437159  0.87721695    -0.16000
F398        F  0.26972559  0.15916876  0.84605155    -0.14500
F399        F  0.23645380  0.24510648  0.76899997    -0.14500
F400        F  0.15820661  0.20482907  0.82127696    -0.15900
C401        C  0.62997708  0.07813911  0.82662947     0.14100
C402        C  0.61236740  0.06904008  0.84292884     0.01100
C403        C  0.59337137  0.03837626  0.83308366     0.16100
C404        C  0.59064489  0.01782469  0.80623669     0.25500
C405        C  0.60713441  0.02741077  0.78904187    -0.40900
C406        C  0.62739733  0.05730127  0.79976370     0.32500
C407        C  0.60873930  0.09311994  0.86592201     0.01100
F408        F  0.57497026  0.02978751  0.84733585    -0.13200
F409        F  0.64217303  0.06760089  0.78219477    -0.13700
C410        C  0.58787904  0.12190290  0.85012390     0.16100
C411        C  0.57649859  0.14023016  0.86842242     0.25500
C412        C  0.58554534  0.12985069  0.90298373    -0.40800
C413        C  0.60883009  0.10237465  0.91976679     0.32400
C414        C  0.62022462  0.08425014  0.90133007     0.14100
F415        F  0.57633190  0.13079191  0.81576324    -0.13200
F416        F  0.61979888  0.09212766  0.95356577    -0.13700
F417        F  0.55533705  0.16720027  0.85134315    -0.16000
F418        F  0.64118539  0.05693162  0.91737184    -0.14500
F419        F  0.64802150  0.10793293  0.83536675    -0.14500
F420        F  0.59297781  0.48389964  0.81096566    -0.15900
C421        C  0.44684628  0.27753762  0.10157087     0.14100
C422        C  0.42176291  0.30304507  0.08375217     0.01100
C423        C  0.40816275  0.31003505  0.04739305     0.16100
C424        C  0.41997418  0.29212463  0.02916047     0.25500
C425        C  0.44638594  0.26737910  0.04737430    -0.40900
C426        C  0.45921509  0.26000379  0.08378463     0.32500
C427        C  0.41398310  0.32511956  0.10505524     0.01100
F428        F  0.38408773  0.33486546  0.02985554    -0.13200
F429        F  0.48493300  0.23690491  0.10300073    -0.13700
C430        C  0.42953676  0.35750305  0.11537814     0.16100
C431        C  0.43050439  0.37533797  0.14292025     0.25500
C432        C  0.41504234  0.36147101  0.15975648    -0.40800
C433        C  0.39698210  0.33034441  0.14747246     0.32400
C434        C  0.39648912  0.31217143  0.12020247     0.14100
F435        F  0.44614108  0.37065585  0.10070527    -0.13200
F436        F  0.38226802  0.31643536  0.16377865    -0.13700
F437        F  0.44816449  0.40538908  0.15455368    -0.16000
F438        F  0.38055185  0.28124177  0.10984658    -0.14500
F439        F  0.46097475  0.27100643  0.13707352    -0.14500
F440        F  0.40589651  0.29956843  0.99388241    -0.15900
C441        C  0.74056276  0.19558760  0.11332971     0.14100
C442        C  0.75458319  0.16963083  0.10366627     0.01100
C443        C  0.73167898  0.14785004  0.07473904     0.16100
C444        C  0.69532786  0.15183078  0.05583781     0.25500
C445        C  0.68112932  0.17816727  0.06509872    -0.40900
C446        C  0.70426431  0.19987628  0.09425264     0.32500
C447        C  0.79307179  0.16487036  0.12444192     0.01100
F448        F  0.74459297  0.12305763  0.06435765    -0.13200
F449        F  0.69180081  0.22470708  0.10508195    -0.13700
C450        C  0.80812000  0.13418149  0.14259528     0.16100
C451        C  0.84462531  0.13057113  0.16430642     0.25500
C452        C  0.86651786  0.15761102  0.16820086    -0.40800
C453        C  0.85147800  0.18788517  0.14930540     0.32400
C454        C  0.81508135  0.19148529  0.12750742     0.14100
F455        F  0.78746793  0.10832667  0.14061645    -0.13200
F456        F  0.87228936  0.21400453  0.15223670    -0.13700
F457        F  0.85867459  0.10150849  0.18323220    -0.16000
F458        F  0.80129268  0.22104311  0.10951960    -0.14500
F459        F  0.76208485  0.21635204  0.14189306    -0.14500
F460        F  0.67412180  0.13030553  0.02795560    -0.15900
C461        C  0.94104007  0.07127016  0.07088050     0.14100
C462        C  0.92658783  0.05291914  0.08660741     0.01100
C463        C  0.92123181  0.01772015  0.08052166     0.16100
C464        C  0.93124997  0.00101026  0.06011014     0.25500
C465        C  0.94614577  0.01932991  0.04484647    -0.40900
C466        C  0.95016355  0.05471932  0.04967062     0.32500
C467        C  0.92029745  0.07021803  0.11192636     0.01100
F468        F  0.90681991  0.99944891  0.09486194    -0.13200
F469        F  0.97373794  0.57186989  0.04293292    -0.13700
C470        C  0.89981446  0.09965101  0.10139961     0.16100
C471        C  0.89963246  0.11973399  0.12719322     0.25500
C472        C  0.91923189  0.11015459  0.16389724    -0.40800
C473        C  0.93754820  0.07924074  0.17371649     0.32400
C474        C  0.93820684  0.05959986  0.14807839     0.14100
F475        F  0.88148914  0.10992378  0.06636777    -0.13200
F476        F  0.95682793  0.06906243  0.20878936    -0.13700
F477        F  0.88313488  0.15001361  0.11660561    -0.16000
F478        F  0.95860554  0.03154062  0.15921764    -0.14500
F479        F  0.94824353  0.10495432  0.07780434    -0.14500
F480        F  0.92635356  0.96690382  0.05520014    -0.15900
C481        C  0.40144420  0.41237357  0.77832316     0.14100
C482        C  0.39229822  0.37919503  0.76433926     0.01100
C483        C  0.37773821  0.37357243  0.72733906     0.16100
C484        C  0.37541130  0.40032750  0.70546738     0.25500
C485        C  0.38827566  0.43266550  0.72068159    -0.40900
C486        C  0.39998430  0.43881302  0.75676795     0.32500
C487        C  0.40493546  0.35043790  0.78984564     0.01100
F488        F  0.36873042  0.34167452  0.71329975    -0.13200
F489        F  0.41322551  0.46975432  0.77205276    -0.13700
C490        C  0.39308293  0.34526096  0.81232697     0.16100
C491        C  0.40892458  0.32094882  0.83983375     0.25500
C492        C  0.43752794  0.30178185  0.84586471    -0.40800
C493        C  0.44877236  0.30678336  0.82258315     0.32400
C494        C  0.43250529  0.33068941  0.79485235     0.14100
F495        F  0.36649179  0.36416025  0.80796794    -0.13200
F496        F  0.47640592  0.28954225  0.82727826    -0.13700
F497        F  0.39622677  0.31639408  0.86056753    -0.16000
F498        F  0.44499274  0.33588554  0.77398185    -0.14500
F499        F  0.41561181  0.41844790  0.81394078    -0.14500
F500        F  0.36458951  0.39376833  0.67078230    -0.15900
C501        C  0.21039672  0.43217000  0.58360664     0.14100
C502        C  0.22603127  0.46333556  0.58529585     0.01100
C503        C  0.20489159  0.49108058  0.56596391     0.16100
C504        C  0.16831322  0.48790444  0.54544682     0.25500
C505        C  0.15218316  0.45680289  0.54427314    -0.40900
C506        C  0.17391643  0.42888156  0.56358704     0.32500
C507        C  0.26454324  0.46662034  0.60690271     0.01100
F508        F  0.21978640  0.52122934  0.56679670    -0.13200
F509        F  0.16013563  0.39835090  0.56373236    -0.13700
C510        C  0.28303814  0.45700163  0.59193533     0.16100
C511        C  0.31966726  0.45901083  0.61266843     0.25500
C512        C  0.33826748  0.47064684  0.64867566    -0.40800
C513        C  0.31938380  0.98146341  0.66548397     0.32400
C514        C  0.28266586  0.97997203  0.64480132     0.14100
F515        F  0.26550223  0.44537081  0.55730946    -0.13200
F516        F  0.33705540  0.99321263  0.70006222    -0.13700
F517        F  0.33709339  0.44834612  0.59811366    -0.16000
F518        F  0.26563276  0.98910550  0.66029883    -0.14500
F519        F  0.23059792  0.40486472  0.60157480    -0.14500
F520        F  0.14888824  0.51532015  0.52667126    -0.15900
C521        C  0.06978835  0.08262514  0.63645320     0.14100
C522        C  0.09244596  0.10655820  0.63639094     0.01100
C523        C  0.10389490  0.10136724  0.61354292     0.16100
C524        C  0.09203262  0.07313696  0.59031493     0.25500
C525        C  0.06802054  0.04978542  0.58917973    -0.40900
C526        C  0.05811321  0.05434709  0.61360216     0.32500
C527        C  0.10195081  0.13777616  0.65866869     0.01100
F528        F  0.12609627  0.12397626  0.61327760    -0.13200
F529        F  0.03580598  0.03234620  0.61448883    -0.13700
C530        C  0.11820545  0.13546311  0.69627288     0.16100
C531        C  0.12049669  0.16388523  0.71634805     0.25500
C532        C  0.10675398  0.19517130  0.69909368    -0.40800
C533        C  0.09237725  0.19785439  0.66180566     0.32400
C534        C  0.09031406  0.16949593  0.64183546     0.14100
F535        F  0.12997456  0.10509898  0.71313730    -0.13200
F536        F  0.07814983  0.22750180  0.64421043    -0.13700
F537        F  0.13282862  0.15982338  0.75175536    -0.16000
F538        F  0.07443694  0.17246747  0.60553642    -0.14500
F539        F  0.05729030  0.08763121  0.65730055    -0.14500
F540        F  0.10374366  0.06905343  0.56865262    -0.15900
C541        C  0.90512748  0.27440207  0.32599761     0.14100
C542        C  0.89455737  0.28278911  0.29058389     0.01100
C543        C  0.88788057  0.31694395  0.27982098     0.16100
C544        C  0.89545223  0.34248231  0.30503471     0.25500
C545        C  0.90928232  0.33434146  0.34135789    -0.40900
C546        C  0.91227994  0.29998639  0.35118300     0.32500
C547        C  0.89666488  0.25703742  0.26752304     0.01100
F548        F  0.87592585  0.32573524  0.24534357    -0.13200
F549        F  0.92528786  0.29121195  0.38592327    -0.13700
C550        C  0.87850609  0.22582311  0.25877593     0.16100
C551        C  0.88542844  0.19975599  0.24221186     0.25500
C552        C  0.91089830  0.20448477  0.23455875    -0.40800
C553        C  0.92749896  0.23631109  0.24147922     0.32400
C554        C  0.92044438  0.26229964  0.25768244     0.14100
F555        F  0.85502365  0.22020470  0.26745665    -0.13200
F556        F  0.95154073  0.24190636  0.23353292    -0.13700
F557        F  0.86887623  0.16934699  0.23581683    -0.16000
F558        F  0.93871891  0.29193461  0.26598250    -0.14500
F559        F  0.91161789  0.24164599  0.33718524    -0.14500
F560        F  0.89085363  0.37540362  0.29435904    -0.15900
C561        C  0.76110304  0.44219208  0.32506805     0.14100
C562        C  0.74657547  0.41756641  0.33578620     0.01100
C563        C  0.76858294  0.39968823  0.36802792     0.16100
C564        C  0.80478048  0.40603832  0.38909738     0.25500
C565        C  0.81956793  0.43050736  0.37823706    -0.40900
C566        C  0.79721119  0.44869157  0.34608112     0.32500
C567        C  0.70856971  0.40990932  0.31246434     0.01100
F568        F  0.75509522  0.37537604  0.37851746    -0.13200
F569        F  0.81040324  0.47177180  0.33407840    -0.13700
C570        C  0.69413822  0.39486810  0.27832831     0.16100
C571        C  0.65793133  0.38996897  0.25489896     0.25500
C572        C  0.63555252  0.40027575  0.26509555    -0.40800
C573        C  0.65004078  0.41421098  0.29973547     0.32400
C574        C  0.68637807  0.41891165  0.32335182     0.14100
F575        F  0.71519676  0.38518384  0.26765437    -0.13200
F576        F  0.62886397  0.42499088  0.30982148    -0.13700
F577        F  0.64453055  0.37529465  0.22205340    -0.16000
F578        F  0.69978742  0.43354502  0.35621291    -0.14500
F579        F  0.74023059  0.45973323  0.29392003    -0.14500
F580        F  0.82532307  0.38823482  0.42012663    -0.15900
C581        C  0.61592748  0.03653490  0.12515954     0.14100
C582        C  0.59757880  0.03073881  0.14135669     0.01100
C583        C  0.57303848  0.05466932  0.13673462     0.16100
C584        C  0.56583091  0.08311245  0.11529974     0.25500
C585        C  0.58222183  0.08798773  0.09679772    -0.40900
C586        C  0.60845269  0.06504191  0.10314735     0.32500
C587        C  0.59881411  0.49541598  0.15773492     0.01100
F588        F  0.55421835  0.04949137  0.15122461    -0.13200
F589        F  0.62665353  0.06994868  0.08793180    -0.13700
C590        C  0.61054917  0.49703716  0.19438112     0.16100
C591        C  0.60728269  0.46875464  0.21129294     0.25500
C592        C  0.59246656  0.43829234  0.19182932    -0.40800
C593        C  0.58346127  0.43595961  0.15613781     0.32400
C594        C  0.58680033  0.46419536  0.13928459     0.14100
F595        F  0.61719734  0.02959278  0.21424946    -0.13200
F596        F  0.56909601  0.40690386  0.13672444    -0.13700
F597        F  0.61519016  0.47238790  0.24533280    -0.16000
F598        F  0.57533179  0.46178900  0.10391830    -0.14500
F599        F  0.64062093  0.01431243  0.13018976    -0.14500
F600        F  0.54123774  0.10487362  0.11137203    -0.15900
C601        C  0.05193510  0.24200806  0.15442004     0.14100
C602        C  0.07849122  0.24313839  0.14807645     0.01100
C603        C  0.10215379  0.21603910  0.15978167     0.16100
C604        C  0.09884278  0.18797172  0.17705584     0.25500
C605        C  0.07189180  0.18683549  0.18283135    -0.40900
C606        C  0.04866094  0.21414941  0.17156524     0.32500
C607        C  0.08001422  0.27222849  0.12794298     0.01100
F608        F  0.12823395  0.21671850  0.15427562    -0.13200
F609        F  0.02236007  0.21360972  0.17678285    -0.13700
C610        C  0.08348312  0.30540086  0.14114454     0.16100
C611        C  0.07787648  0.33332308  0.11924714     0.25500
C612        C  0.07013141  0.32863666  0.08418111    -0.40800
C613        C  0.06945868  0.29540780  0.07210352     0.32400
C614        C  0.07363302  0.26741533  0.09352434     0.14100
F615        F  0.09100883  0.31066680  0.17487628    -0.13200
F616        F  0.06212733  0.28985499  0.03849856    -0.13700
F617        F  0.07920140  0.36495690  0.13206787    -0.16000
F618        F  0.06897012  0.23564796  0.07961549    -0.14500
F619        F  0.02834381  0.26749134  0.14287251    -0.14500
F620        F  0.12083471  0.16134927  0.18656910    -0.15900
C621        C  0.07789997  0.04765337  0.29469165     0.14100
C622        C  0.07463196  0.06560884  0.31979627     0.01100
C623        C  0.07631868  0.10124139  0.32052618     0.16100
C624        C  0.07842608  0.11872070  0.29452873     0.25500
C625        C  0.07863048  0.10066329  0.26751876    -0.40900
C626        C  0.07958125  0.06510281  0.26850320     0.32500
C627        C  0.06404765  0.04743439  0.34112506     0.01100
F628        F  0.07256599  0.11902966  0.34417309    -0.13200
F629        F  0.07940874  0.04731965  0.24236806    -0.13700
C630        C  0.08586728  0.04674245  0.37904966     0.16100
C631        C  0.07497959  0.02981303  0.39873678     0.25500
C632        C  0.04177307  0.01374616  0.38067291    -0.40800
C633        C  0.01993267  0.01487748  0.34255314     0.32400
C634        C  0.03102814  0.03148728  0.32306397     0.14100
F635        F  0.11779520  0.06223205  0.39692305    -0.13200
F636        F  0.99258020  0.49308985  0.32302347    -0.13700
F637        F  0.09718280  0.02868555  0.43536475    -0.16000
F638        F  0.00903215  0.03287334  0.28640428    -0.14500
F639        F  0.07697966  0.01319409  0.29403556    -0.14500
F640        F  0.07636508  0.15311092  0.29331420    -0.15900
C641        C  0.18453600  0.13291091  0.28568822     0.14100
C642        C  0.19649524  0.16510029  0.30206118     0.01100
C643        C  0.17162826  0.18975671  0.29561754     0.16100
C644        C  0.13560466  0.18258339  0.27243005     0.25500
C645        C  0.12394491  0.15045374  0.25612461    -0.40900
C646        C  0.14866966  0.12556315  0.26343046     0.32500
C647        C  0.23480235  0.17284245  0.32489662     0.01100
F648        F  0.18222238  0.22064141  0.31200398    -0.13200
F649        F  0.13790318  0.09447976  0.24760387    -0.13700
C650        C  0.24862288  0.20089860  0.31721973     0.16100
C651        C  0.28491554  0.20663751  0.33700338     0.25500
C652        C  0.30827036  0.18416209  0.36466935    -0.40800
C653        C  0.29426782  0.15639706  0.37264629     0.32400
C654        C  0.25804006  0.15099411  0.35319951     0.14100
F655        F  0.22707190  0.22198991  0.28945348    -0.13200
F656        F  0.31558502  0.13443122  0.39954681    -0.13700
F657        F  0.29714458  0.23346120  0.32799043    -0.16000
F658        F  0.24564132  0.12421973  0.36208523    -0.14500
F659        F  0.20759103  0.10890765  0.29011384    -0.14500
F660        F  0.11206578  0.20681545  0.26605698    -0.15900
C661        C  0.55050999  0.34304803  0.63074790     0.14100
C662        C  0.58404041  0.35562109  0.64315341     0.01100
C663        C  0.60164816  0.34281305  0.62834231     0.16100
C664        C  0.58565199  0.31817659  0.60085293     0.25500
C665        C  0.55150988  0.30614592  0.58747546    -0.40900
C666        C  0.53428549  0.31867467  0.60307277     0.32500
C667        C  0.59716856  0.38642777  0.66607032     0.01100
F668        F  0.63379460  0.35522645  0.63956692    -0.13200
F669        F  0.50084542  0.30901171  0.59001144    -0.13700
C670        C  0.61205421  0.38505268  0.70348317     0.16100
C671        C  0.61740094  0.41504125  0.72299073     0.25500
C672        C  0.60725907  0.44641786  0.70500216    -0.40800
C673        C  0.59479106  0.44777477  0.66822389     0.32400
C674        C  0.59003467  0.41802932  0.64899468     0.14100
F675        F  0.61917845  0.35468148  0.72049767    -0.13200
F676        F  0.58439121  0.47771523  0.65021447    -0.13700
F677        F  0.62883606  0.41305240  0.75836105    -0.16000
F678        F  0.57545625  0.41976204  0.61284205    -0.14500
F679        F  0.53255266  0.35607391  0.64385932    -0.14500
F680        F  0.60342526  0.30649584  0.58701420    -0.15900
C681        C  0.42547176  0.05242061  0.30105320     0.14100
C682        C  0.39945888  0.02909254  0.29467935     0.01100
C683        C  0.38081590  0.03476631  0.31046066     0.16100
C684        C  0.38841810  0.06331845  0.33268858     0.25500
C685        C  0.41495023  0.08667558  0.33951864    -0.40900
C686        C  0.43314490  0.08077977  0.32306602     0.32500
C687        C  0.40174453  0.49054819  0.28145365     0.01100
F688        F  0.35545663  0.01251460  0.30452517    -0.13200
F689        F  0.45978323  0.10148583  0.32956331    -0.13700
C690        C  0.41404568  0.45947279  0.29962207     0.16100
C691        C  0.41679187  0.43139982  0.28214435     0.25500
C692        C  0.40745652  0.43404710  0.24633848    -0.40800
C693        C  0.39318714  0.46461041  0.22753913     0.32400
C694        C  0.38465827  0.00032035  0.23774734     0.14100
F695        F  0.42604123  0.45710556  0.33512273    -0.13200
F696        F  0.38520619  0.46859444  0.19352435    -0.13700
F697        F  0.43041728  0.40210869  0.30082079    -0.16000
F698        F  0.37399636  0.03045281  0.22014165    -0.14500
F699        F  0.44479006  0.04684645  0.28724147    -0.14500
F700        F  0.37005280  0.06777307  0.34772916    -0.15900
C701        C  0.36788163  0.08153548  0.52345461     0.14100
C702        C  0.38100234  0.08609659  0.56015204     0.01100
C703        C  0.40278872  0.11428609  0.57877263     0.16100
C704        C  0.41353082  0.13598342  0.56186630     0.25500
C705        C  0.40263261  0.12997821  0.52576995    -0.40900
C706        C  0.37845412  0.10316285  0.50639909     0.32500
C707        C  0.37648574  0.05914153  0.58048420     0.01100
F708        F  0.41579411  0.11948298  0.61427429    -0.13200
F709        F  0.36577778  0.09687832  0.47116502    -0.13700
C710        C  0.38888942  0.02628080  0.58171436     0.16100
C711        C  0.39240691  0.00278435  0.60691651     0.25500
C712        C  0.38301796  0.01147516  0.63080441    -0.40800
C713        C  0.36762028  0.04302766  0.62747357     0.32400
C714        C  0.36457786  0.06687471  0.60260041     0.14100
F715        F  0.40058089  0.01788556  0.56078946    -0.13200
F716        F  0.35834131  0.05176065  0.65037267    -0.13700
F717        F  0.40698951  0.97217371  0.60953960    -0.16000
F718        F  0.35191348  0.09814946  0.60155835    -0.14500
F719        F  0.34576733  0.05523788  0.50441283    -0.14500
F720        F  0.43619791  0.16164876  0.58172462    -0.15900
C721        C  0.55911303  0.27541812  0.34164873     0.14100
C722        C  0.57346447  0.30817876  0.35326163     0.01100
C723        C  0.57729517  0.32176134  0.38438650     0.16100
C724        C  0.56458365  0.30407956  0.40198819     0.25500
C725        C  0.54835655  0.27189430  0.38927559    -0.40900
C726        C  0.54697102  0.25732896  0.35957466     0.32500
C727        C  0.57942852  0.32980063  0.32991519     0.01100
F728        F  0.59238025  0.35280059  0.39707103    -0.13200
F729        F  0.53313388  0.22583647  0.34715578    -0.13700
C730        C  0.55956281  0.35938297  0.31484313     0.16100
C731        C  0.56037972  0.37729927  0.28839725     0.25500
C732        C  0.58049785  0.36572743  0.27587363    -0.40800
C733        C  0.60197313  0.33727554  0.29224579     0.32400
C734        C  0.60161403  0.31952073  0.31933824     0.14100
F735        F  0.53740676  0.36964449  0.32389900    -0.13200
F736        F  0.62142047  0.32541892  0.28042312    -0.13700
F737        F  0.54024228  0.40534753  0.27376977    -0.16000
F738        F  0.62187156  0.29161125  0.33430079    -0.14500
F739        F  0.55499969  0.26162573  0.31160348    -0.14500
F740        F  0.56684460  0.31935982  0.43048757    -0.15900
C741        C  0.70107870  0.19896354  0.59495918     0.14100
C742        C  0.71616351  0.22617343  0.58787805     0.01100
C743        C  0.69409362  0.24960931  0.56089863     0.16100
C744        C  0.65751999  0.24595879  0.54145902     0.25500
C745        C  0.64223311  0.21888555  0.54890853    -0.40900
C746        C  0.66465485  0.19529784  0.57577848     0.32500
C747        C  0.75492864  0.23000151  0.60905418     0.01100
F748        F  0.70799474  0.27572777  0.55292011    -0.13200
F749        F  0.65148196  0.16886689  0.58419653    -0.13700
C750        C  0.77563105  0.20385863  0.60920757     0.16100
C751        C  0.81225846  0.20664941  0.63058793     0.25500
C752        C  0.82882330  0.23529855  0.65265890    -0.40800
C753        C  0.80821318  0.26152452  0.65237297     0.32400
C754        C  0.77156485  0.25905693  0.63055609     0.14100
F755        F  0.76029747  0.17562941  0.58851660    -0.13200
F756        F  0.82376807  0.28901551  0.67425964    -0.13700
F757        F  0.83150008  0.18163918  0.62928163    -0.16000
F758        F  0.75234597  0.28444298  0.63148209    -0.14500
F759        F  0.72175547  0.17623020  0.62123178    -0.14500
F760        F  0.63720579  0.26851610  0.51479322    -0.15900
C761        C  0.93599221  0.09383970  0.80256711     0.14100
C762        C  0.90142162  0.10422397  0.78810155     0.01100
C763        C  0.88282266  0.08945449  0.80120651     0.16100
C764        C  0.89865645  0.06472433  0.82838886     0.25500
C765        C  0.93331222  0.05435129  0.84275389    -0.40900
C766        C  0.95165229  0.06907734  0.82935409     0.32500
C767        C  0.88630082  0.13170778  0.76077275     0.01100
F768        F  0.84930344  0.09873103  0.78746288    -0.13200
F769        F  0.98538073  0.06049710  0.84320810    -0.13700
C770        C  0.88693370  0.12888769  0.72976799     0.16100
C771        C  0.88356153  0.15772646  0.70989202     0.25500
C772        C  0.87792320  0.18960781  0.71970563    -0.40800
C773        C  0.87390866  0.19193004  0.74856254     0.32400
C774        C  0.87784124  0.16310321  0.76888083     0.14100
F775        F  0.89440076  0.09871858  0.72096479    -0.13200
F776        F  0.87019761  0.22274976  0.75957965    -0.13700
F777        F  0.89035818  0.15516175  0.68410517    -0.16000
F778        F  0.87721260  0.16666456  0.79874199    -0.14500
F779        F  0.95517307  0.10859906  0.79156409    -0.14500
F780        F  0.87989085  0.05047221  0.84013601    -0.15900
C781        C  0.87617298  0.29000504  0.59064961     0.14100
C782        C  0.88811114  0.32389328  0.59945081     0.01100
C783        C  0.89228242  0.33884947  0.63022146     0.16100
C784        C  0.88773042  0.31943537  0.65351084     0.25500
C785        C  0.87880960  0.28481404  0.64640493    -0.40900
C786        C  0.87130643  0.27065038  0.61386643     0.32500
C787        C  0.90068322  0.34215208  0.57964530     0.01100
F788        F  0.90413627  0.37132050  0.63966731    -0.13200
F789        F  0.86300359  0.23719190  0.60649820    -0.13700
C790        C  0.88722553  0.37408375  0.56390618     0.16100
C791        C  0.90084730  0.39176994  0.54712968     0.25500
C792        C  0.92806497  0.37783319  0.54594220    -0.40800
C793        C  0.94174438  0.34617632  0.56185060     0.32400
C794        C  0.92829911  0.32854046  0.57872330     0.14100
F795        F  0.86079575  0.38801112  0.56459747    -0.13200
F796        F  0.96866874  0.33271384  0.56169745    -0.13700
F797        F  0.88709427  0.42220147  0.53142584    -0.16000
F798        F  0.94305775  0.29864233  0.59527360    -0.14500
F799        F  0.87158844  0.27500182  0.56087585    -0.14500
F800        F  0.89495800  0.33368815  0.68471765    -0.15900
N801        N  0.86511150  0.73391152  0.67587355    -0.02000
C802        C  0.88604353  0.75835832  0.67607130     0.00600
C803        C  0.91997059  0.75519997  0.70623034    -0.22300
C804        C  0.91996125  0.72785205  0.72523390    -0.22500
C805        C  0.88607630  0.71529717  0.70601049     0.00500
H806        H  0.94256844  0.77029405  0.71286838     0.14200
H807        H  0.94231453  0.71784801  0.75011688     0.14300
Zr808      Zr  0.42699275  0.65234295  0.43522973     2.17500
O809        O  0.41521628  0.59212608  0.43691796    -0.49900
O810        O  0.36494374  0.66485673  0.39666166    -0.73100
O811        O  0.41215892  0.63932528  0.47837269    -0.79900
O812        O  0.44451097  0.63665144  0.36311458    -0.81600
O813        O  0.43894801  0.67672592  0.52518800    -0.77200
O814        O  0.41758328  0.61334371  0.38794499    -0.88900
O815        O  0.35758653  0.72100174  0.38392467    -0.74800
O816        O  0.42171101  0.70605396  0.45606835    -0.84300
O817        O  0.42076056  0.69273945  0.39230080    -0.84000
O818        O  0.47954036  0.65924736  0.49501982    -0.70800
O819        O  0.47959621  0.64783055  0.43681714    -0.82900
Zr820      Zr  0.52134716  0.75092572  0.47420935     2.26400
Zr821      Zr  0.47459827  0.71419310  0.51494373     2.06300
Zr822      Zr  0.47368347  0.68918334  0.39467706     2.10000
Zr823      Zr  0.41613858  0.74641958  0.41368890     1.78800
O824        O  0.51080847  0.65712234  0.38232662    -0.91700
O825        O  0.38718758  0.77907132  0.43585684    -0.39500
O826        O  0.46862712  0.74370669  0.41468651    -0.76200
O827        O  0.46867616  0.75593444  0.47288160    -0.94800
O828        O  0.52715504  0.71057328  0.51670810    -0.88100
O829        O  0.52631918  0.69707233  0.45342920    -0.91000
C830        C  0.34550158  0.69094737  0.38187936     1.02800
C831        C  0.42687878  0.61278380  0.36567530     1.15700
C832        C  0.41914102  0.65080759  0.50868303     1.06500
O833        O  0.44059672  0.74829960  0.52992195    -0.93100
O834        O  0.51043310  0.76223351  0.55234082    -0.88900
O835        O  0.54017263  0.78261816  0.52931798    -0.82000
C836        C  0.53261878  0.78273568  0.55299229     1.13100
O837        O  0.53099349  0.59575597  0.50408555    -0.95100
Zr838      Zr  0.53192986  0.65686370  0.49592477     1.88900
O839        O  0.58370125  0.73888810  0.51208262    -0.71800
O840        O  0.51440161  0.69242082  0.57600179    -0.51000
O841        O  0.55754411  0.64409039  0.55945249    -0.95700
O842        O  0.56214736  0.62315161  0.47584272    -0.52900
O843        O  0.58993855  0.68283636  0.52579580    -0.72300
C844        C  0.60253454  0.71259820  0.52781725     1.00100
O845        O  0.52537872  0.81162874  0.46600852    -0.61100
O846        O  0.43502320  0.70831142  0.33231525    -0.55900
O847        O  0.53903857  0.76349515  0.43333289    -0.92600
O848        O  0.50769510  0.72878122  0.38443193    -0.91000
O849        O  0.38919058  0.76356027  0.35102056    -0.91400
O850        O  0.41852439  0.80751601  0.40688777    -0.90200
C851        C  0.52986790  0.75292451  0.40191427     1.18900
H852        H  0.40057973  0.68780970  0.36812817     0.34800
H853        H  0.46764331  0.77829209  0.48109592     0.45700
H854        H  0.54646072  0.69637552  0.45206000     0.39200
H855        H  0.48076145  0.64181370  0.51087279     0.35700
H856        H  0.36221796  0.77973924  0.41535400     0.27500
H857        H  0.50873299  0.70532939  0.59106936     0.33400
H858        H  0.57315001  0.66365322  0.57302626     0.39300
H859        H  0.36407410  0.76653396  0.34123579     0.33800
H860        H  0.43921087  0.73310709  0.33334074     0.32700
H861        H  0.50230039  0.66289726  0.35709180     0.34400
H862        H  0.57630513  0.63962255  0.47236633     0.33300
H863        H  0.44384874  0.81324525  0.42154467     0.37300
H864        H  0.50970373  0.81527181  0.43954852     0.30100
H865        H  0.39116488  0.59079016  0.43122107     0.34300
H866        H  0.55543560  0.58969102  0.52329989     0.37100
H867        H  0.44532941  0.69898681  0.31973275     0.29800
H868        H  0.51308909  0.82284929  0.47563201     0.42600
H869        H  0.45039717  0.74300386  0.55558813     0.32700
H870        H  0.38753413  0.76422635  0.45392888     0.40300
H871        H  0.54343808  0.61569409  0.45100877     0.32100
H872        H  0.50617140  0.66899957  0.57542110     0.32200
H873        H  0.43080546  0.58530792  0.46260870     0.32500
N874        N  0.08548720  0.64134838  0.22541546    -0.02000
C875        C  0.06716269  0.61546674  0.22745958     0.00600
C876        C  0.03422684  0.61267545  0.19558158    -0.22300
C877        C  0.03209231  0.63790673  0.17320904    -0.22500
C878        C  0.06386886  0.65508525  0.19212789     0.00500
H879        H  0.01333915  0.59542643  0.18999375     0.14200
H880        H  0.00946344  0.64375248  0.14645395     0.14300
N881        N  0.59544774  0.89855640  0.23547677    -0.02000
C882        C  0.57114862  0.87958177  0.23625800     0.00600
C883        C  0.53911106  0.88100192  0.20320900    -0.22300
C884        C  0.54363989  0.90165093  0.18137520    -0.22500
C885        C  0.57824128  0.91233758  0.20187276     0.00500
H886        H  0.51468070  0.86949435  0.19630740     0.14200
H887        H  0.52334531  0.90979505  0.15432731     0.14300
Zr888      Zr  0.93926882  0.89225883  0.44900150     2.17500
O889        O  0.93331586  0.83112311  0.45277812    -0.49900
O890        O  0.87683097  0.90335001  0.41685768    -0.73100
O891        O  0.92992283  0.87856788  0.49601984    -0.79900
O892        O  0.94016449  0.88402743  0.36493911    -0.81600
O893        O  0.96018414  0.91620770  0.54276081    -0.77200
O894        O  0.92120761  0.85713076  0.39604153    -0.88900
O895        O  0.86829375  0.95969289  0.40524692    -0.74800
O896        O  0.93670940  0.94520955  0.47312147    -0.84300
O897        O  0.92745166  0.93400825  0.40508836    -0.84000
O898        O  0.99539052  0.89901341  0.50573923    -0.70800
O899        O  0.98727895  0.88951140  0.44231198    -0.82900
Zr900      Zr  0.03001985  0.99234013  0.47856608     2.26400
Zr901      Zr  0.99298206  0.95344088  0.52844001     2.06300
Zr902      Zr  0.97574540  0.93264515  0.39923657     2.10000
Zr903      Zr  0.92535431  0.98668741  0.42937903     1.78800
O904        O  0.00643617  0.90081745  0.37859418    -0.91700
O905        O  0.89783092  0.52204749  0.44871684    -0.39500
O906        O  0.97345226  0.98619959  0.42257294    -0.76200
O907        O  0.98166323  0.99595004  0.48500078    -0.94800
O908        O  0.04109638  0.95090239  0.52243732    -0.88100
O909        O  0.03192297  0.93927972  0.45455745    -0.91000
C910        C  0.85689092  0.92935478  0.40346663     1.02800
C911        C  0.92400976  0.85979332  0.36905509     1.15700
C912        C  0.93937966  0.89075206  0.52693411     1.06500
O913        O  0.96250105  0.98958294  0.54631126    -0.93100
O914        O  0.03408640  0.50426524  0.56238190    -0.88900
O915        O  0.05722817  0.52671522  0.53339993    -0.82000
C916        C  0.05374103  0.52586174  0.55999105     1.13100
O917        O  0.04308556  0.83691032  0.50728108    -0.95100
Zr918      Zr  0.04306677  0.89797534  0.49846293     1.88900
O919        O  0.09261603  0.98064250  0.51104647    -0.71800
O920        O  0.03407567  0.93361065  0.59008259    -0.51000
O921        O  0.07926974  0.88490740  0.56287383    -0.95700
O922        O  0.06855334  0.86766345  0.47105146    -0.52900
O923        O  0.10002189  0.92445018  0.52406788    -0.72300
C924        C  0.11198180  0.95430010  0.52535498     1.00100
O925        O  0.03523262  0.55479341  0.46776416    -0.61100
O926        O  0.93227041  0.95487652  0.33935873    -0.55900
O927        O  0.04512004  0.50626015  0.43224518    -0.92600
O928        O  0.00663322  0.97247334  0.38488533    -0.91000
O929        O  0.89242175  0.00094199  0.36533409    -0.91400
O930        O  0.92705924  0.55278129  0.42149211    -0.90200
C931        C  0.02949839  0.99638484  0.40112984     1.18900
H932        H  0.90575721  0.92932753  0.38210319     0.34800
H933        H  0.98410292  0.52255631  0.49177432     0.45700
H934        H  0.05014399  0.93904127  0.45013331     0.39200
H935        H  0.99862911  0.88129706  0.52227643     0.35700
H936        H  0.87458993  0.52765239  0.42674998     0.27500
H937        H  0.05750406  0.94044990  0.59613922     0.33400
H938        H  0.06253229  0.88123755  0.56978486     0.39300
H939        H  0.86782815  0.00301206  0.35781503     0.33800
H940        H  0.93536765  0.97983932  0.34202413     0.32700
H941        H  0.98924149  0.89807130  0.35215636     0.34400
H942        H  0.08443557  0.88418085  0.47034822     0.33300
H943        H  0.94668622  0.55824592  0.41916527     0.37300
H944        H  0.01785848  0.55810852  0.44148247     0.30100
H945        H  0.91238027  0.82777619  0.45341594     0.34300
H946        H  0.06798112  0.83015860  0.52047310     0.37100
H947        H  0.94091404  0.94846344  0.32428160     0.29800
H948        H  0.02449132  0.56607944  0.47902483     0.42600
H949        H  0.96807371  0.01316032  0.54338885     0.32700
H950        H  0.90315523  0.00341854  0.47564949     0.40300
H951        H  0.04891437  0.86461151  0.44538204     0.32100
H952        H  0.03007633  0.94855429  0.60523618     0.32200
H953        H  0.95344098  0.82477950  0.47723273     0.32500
N954        N  0.37552387  0.97346644  0.67160160    -0.02000
C955        C  0.39708040  0.48875331  0.66281389     0.00600
C956        C  0.43191946  0.48436045  0.69035549    -0.22300
C957        C  0.43244517  0.96728852  0.71647058    -0.22500
C958        C  0.39828592  0.95918401  0.70434662     0.00500
H959        H  0.45446305  0.49484945  0.69187303     0.14200
H960        H  0.45607414  0.95864010  0.74109747     0.14300
N961        N  0.90114620  0.65293589  0.19208826    -0.02000
C962        C  0.92325622  0.63048555  0.19186366     0.00600
C963        C  0.95717386  0.63608490  0.22155724    -0.22300
C964        C  0.95600422  0.66297202  0.24038270    -0.22500
C965        C  0.92141804  0.67289241  0.22176943     0.00500
H966        H  0.98058831  0.62319379  0.22780600     0.14200
H967        H  0.97810446  0.67446828  0.26470077     0.14300
Zr968      Zr  0.55692054  0.64666551  0.99035127     2.17500
O969        O  0.55899458  0.58545147  0.98407639    -0.49900
O970        O  0.61962014  0.65622762  0.02694287    -0.73100
O971        O  0.57247940  0.63414429  0.94754975    -0.79900
O972        O  0.54741227  0.63697796  0.06897327    -0.81600
O973        O  0.54553990  0.67201403  0.90160874    -0.77200
O974        O  0.57194128  0.61235973  0.04246953    -0.88900
O975        O  0.62940201  0.71240124  0.04088196    -0.74800
O976        O  0.56342378  0.69947650  0.96892527    -0.84300
O977        O  0.56709655  0.68837046  0.03398330    -0.84000
O978        O  0.50301911  0.65375877  0.93196182    -0.70800
O979        O  0.50643485  0.64453369  0.99296782    -0.82900
Zr980      Zr  0.46795785  0.74787718  0.95631717     2.26400
Zr981      Zr  0.50945643  0.70791113  0.91179606     2.06300
Zr982      Zr  0.51642702  0.68749517  0.03571010     2.10000
Zr983      Zr  0.57294245  0.74104539  0.01206745     1.78800
O984        O  0.48377002  0.65546254  0.05426190    -0.91700
O985        O  0.60240338  0.77001688  0.98792133    -0.39500
O986        O  0.52218426  0.74107085  0.01449036    -0.76200
O987        O  0.51899437  0.75076624  0.95445608    -0.94800
O988        O  0.45874578  0.70610830  0.91341832    -0.88100
O989        O  0.46250659  0.69503006  0.97843115    -0.91000
C990        C  0.64002876  0.68193204  0.04241369     1.02800
C991        C  0.56523796  0.61344175  0.06676884     1.15700
C992        C  0.56588719  0.64674017  0.91777024     1.06500
O993        O  0.54209617  0.74527115  0.89721180    -0.93100
O994        O  0.47200177  0.75369415  0.87402300    -0.88900
O995        O  0.44689576  0.77795251  0.90011749    -0.82000
C996        C  0.45200644  0.77567955  0.87470931     1.13100
O997        O  0.45315233  0.59257095  0.92577107    -0.95100
Zr998      Zr  0.45282370  0.65348220  0.93523235     1.88900
O999        O  0.40498471  0.73712385  0.92100295    -0.71800
O1000       O  0.47133550  0.68498334  0.85066376    -0.51000
O1001       O  0.41710669  0.64182256  0.87036736    -0.95700
O1002       O  0.42490351  0.62229558  0.95988346    -0.52900
O1003       O  0.39655245  0.68051227  0.90971211    -0.72300
C1004       C  0.38516663  0.71063917  0.90758347     1.00100
O1005       O  0.46965853  0.80910538  0.96526625    -0.61100
O1006       O  0.56006741  0.71026981  0.09561851    -0.55900
O1007       O  0.45261667  0.76165880  0.99881766    -0.92600
O1008       O  0.48281041  0.72644642  0.04689707    -0.91000
O1009       O  0.60269011  0.75989227  0.07474510    -0.91400
O1010       O  0.57577039  0.80255664  0.01891488    -0.90200
C1011       C  0.46133310  0.75087823  0.02997837     1.18900
H1012       H  0.58774732  0.68336752  0.05766737     0.34800
H1013       H  0.52025375  0.77283871  0.94584753     0.45700
H1014       H  0.44320286  0.69507502  0.98119713     0.39200
H1015       H  0.50038382  0.63603192  0.91564112     0.35700
H1016       H  0.62599943  0.77583448  0.00944844     0.27500
H1017       H  0.48076580  0.69455924  0.83726850     0.33400
H1018       H  0.42003758  0.66206881  0.85916890     0.39300
H1019       H  0.61772826  0.74068208  0.08938818     0.33800
H1020       H  0.55740919  0.73520120  0.09281624     0.32700
H1021       H  0.49223219  0.66436426  0.07863427     0.34400
H1022       H  0.41109068  0.63929534  0.96299021     0.33300
H1023       H  0.55323274  0.80865038  0.01530036     0.37300
H1024       H  0.48517774  0.81244558  0.99183028     0.30100
H1025       H  0.58244325  0.58107036  0.98910247     0.34300
H1026       H  0.42830430  0.58606165  0.90811769     0.37100
H1027       H  0.55109822  0.70425657  0.11052823     0.29800
H1028       H  0.48351257  0.81825859  0.95634667     0.42600
H1029       H  0.54524536  0.76674562  0.91027358     0.32700
H1030       H  0.60666770  0.75207147  0.97535258     0.40300
H1031       H  0.44436108  0.61658207  0.98490269     0.32100
H1032       H  0.47675311  0.66048641  0.85277849     0.32200
H1033       H  0.54232910  0.58072363  0.95788470     0.32500
N1034       N  0.12323810  0.73579707  0.75268176    -0.02000
C1035       C  0.10265794  0.75546821  0.75842140     0.00600
C1036       C  0.06859344  0.75515944  0.72818348    -0.22300
C1037       C  0.06802337  0.73484293  0.70288638    -0.22500
C1038       C  0.10175352  0.72312745  0.71845483     0.00500
H1039       H  0.04638625  0.76788799  0.72514560     0.14200
H1040       H  0.04509673  0.72813183  0.67649373     0.14300
N1041       N  0.61916845  0.98919850  0.75211746    -0.02000
C1042       C  0.60406046  0.51062448  0.76010110     0.00600
C1043       C  0.56928900  0.50949559  0.73135302    -0.22300
C1044       C  0.56493286  0.98768367  0.70090702    -0.22500
C1045       C  0.59889920  0.97607201  0.71819359     0.00500
H1046       H  0.54765842  0.52243866  0.72934862     0.14200
H1047       H  0.54266907  0.98013734  0.67441338     0.14300
N1048       N  0.39464282  0.90136911  0.19159053    -0.02000
C1049       C  0.41738562  0.88242059  0.18874908     0.00600
C1050       C  0.45037837  0.88389579  0.22055373    -0.22300
C1051       C  0.44797853  0.90454281  0.24387444    -0.22500
C1052       C  0.41356407  0.91508700  0.22538254     0.00500
H1053       H  0.47375934  0.87180280  0.22579828     0.14200
H1054       H  0.46933781  0.91224546  0.27079063     0.14300
Zr1055     Zr  0.05033490  0.89522882  0.98333756     2.17500
O1056       O  0.05172406  0.83434778  0.97438480    -0.49900
O1057       O  0.11343127  0.90339706  0.02112379    -0.73100
O1058       O  0.06735900  0.88320693  0.94188813    -0.79900
O1059       O  0.03636419  0.88103119  0.05834812    -0.81600
O1060       O  0.04475675  0.92343444  0.89822410    -0.77200
O1061       O  0.06250829  0.85827932  0.03253669    -0.88900
O1062       O  0.12405746  0.95964512  0.03300588    -0.74800
O1063       O  0.06037049  0.94885011  0.96620706    -0.84300
O1064       O  0.06022608  0.93446165  0.02883715    -0.84000
O1065       O  0.99836471  0.90603013  0.92446322    -0.70800
O1066       O  0.99777859  0.89301545  0.98242540    -0.82900
Zr1067     Zr  0.96554086  0.99933654  0.95223772     2.26400
Zr1068     Zr  0.00858525  0.96065052  0.90813654     2.06300
Zr1069     Zr  0.00773052  0.93344257  0.02744933     2.10000
Zr1070     Zr  0.06924493  0.98813305  0.01097284     1.78800
O1071       O  0.96983891  0.90282376  0.04024371    -0.91700
O1072       O  0.10303350  0.52552471  0.99468875    -0.39500
O1073       O  0.01734763  0.98791233  0.01088104    -0.76200
O1074       O  0.01789603  0.00159988  0.95259582    -0.94800
O1075       O  0.95632363  0.96013571  0.90717541    -0.88100
O1076       O  0.95587224  0.94565117  0.96973619    -0.91000
C1077       C  0.13425647  0.92908919  0.03484505     1.02800
C1078       C  0.05466283  0.85814655  0.05592462     1.15700
C1079       C  0.06313565  0.89668038  0.91352906     1.06500
O1080       O  0.04445620  0.99790113  0.89779675    -0.93100
O1081       O  0.97621239  0.50751244  0.87445349    -0.88900
O1082       O  0.94919930  0.52902538  0.89992907    -0.82000
C1083       C  0.95537371  0.52847252  0.87532157     1.13100
O1084       O  0.93851629  0.84790736  0.90476214    -0.95100
Zr1085     Zr  0.94623501  0.90688164  0.92434735     1.88900
O1086       O  0.90224404  0.99178406  0.91911242    -0.71800
O1087       O  0.97155229  0.93995953  0.84593866    -0.51000
O1088       O  0.91361523  0.89975230  0.85891531    -0.95700
O1089       O  0.91614518  0.87292450  0.94474514    -0.52900
O1090       O  0.89150515  0.93673336  0.90109362    -0.72300
C1091       C  0.88127557  0.96650761  0.90273400     1.00100
O1092       O  0.97254108  0.55890009  0.96478793    -0.61100
O1093       O  0.04771234  0.95173110  0.09018850    -0.55900
O1094       O  0.95670727  0.51384743  0.99827638    -0.92600
O1095       O  0.97572050  0.97359890  0.03952185    -0.91000
O1096       O  0.10307781  0.99794261  0.07616243    -0.91400
O1097       O  0.07784073  0.54540694  0.03402772    -0.90200
C1098       C  0.95919902  0.00146249  0.02570153     1.18900
H1099       H  0.08027599  0.92813639  0.05239528     0.34800
H1100       H  0.02495627  0.52301432  0.94859537     0.45700
H1101       H  0.93610336  0.94609044  0.97170196     0.39200
H1102       H  0.99569774  0.88893850  0.90756026     0.35700
H1103       H  0.12774543  0.52690018  0.01576093     0.27500
H1104       H  0.98393860  0.94691753  0.83462259     0.33400
H1105       H  0.90687348  0.92299424  0.84902454     0.39300
H1106       H  0.12332047  0.98248023  0.08672620     0.33800
H1107       H  0.06887246  0.93765508  0.10001081     0.32700
H1108       H  0.98015357  0.90737338  0.06620253     0.34400
H1109       H  0.90729386  0.88951014  0.95436743     0.33300
H1110       H  0.05346670  0.55367206  0.01860631     0.37300
H1111       H  0.98941634  0.56212920  0.99121366     0.30100
H1112       H  0.07552004  0.82983051  0.98039138     0.34300
H1113       H  0.95820100  0.83585325  0.92580286     0.37100
H1114       H  0.05529661  0.97484219  0.08860361     0.29800
H1115       H  0.98500611  0.56839394  0.95444151     0.42600
H1116       H  0.03497258  0.99488288  0.87181552     0.32700
H1117       H  0.10190751  0.00839470  0.97529696     0.40300
H1118       H  0.93507613  0.86091540  0.96644082     0.32100
H1119       H  0.97364563  0.91494012  0.84767247     0.32200
H1120       H  0.03582707  0.83058350  0.94791596     0.32500
C1121       C  0.30569968  0.91547178  0.10626206     0.14100
C1122       C  0.28395822  0.90821939  0.11822833     0.01100
C1123       C  0.29897094  0.89760351  0.15401479     0.16100
C1124       C  0.33524467  0.89472191  0.17768077     0.25500
C1125       C  0.35720564  0.90298966  0.16621127    -0.40900
C1126       C  0.34215316  0.91316947  0.13020177     0.32500
C1127       C  0.24570078  0.91298294  0.09413362     0.01100
F1128       F  0.27846791  0.89071118  0.16624003    -0.13200
F1129       F  0.36268501  0.92203647  0.11857715    -0.13700
C1130       C  0.22276956  0.88539518  0.08511527     0.16100
C1131       C  0.18656258  0.89036335  0.06520918     0.25500
C1132       C  0.17259933  0.92328852  0.05432287    -0.40800
C1133       C  0.19591302  0.95080523  0.06283589     0.32400
C1134       C  0.23202350  0.94556853  0.08221767     0.14100
F1135       F  0.23558041  0.85357578  0.09585824    -0.13200
F1136       F  0.18399095  0.98296445  0.05266662    -0.13700
F1137       F  0.16542454  0.86294486  0.05754132    -0.16000
F1138       F  0.25378284  0.97257045  0.09034702    -0.14500
F1139       F  0.29155173  0.92478343  0.07142382    -0.14500
F1140       F  0.34904970  0.88364500  0.21189855    -0.15900
C1141       C  0.70873286  0.96918215  0.83413044     0.14100
C1142       C  0.73040093  0.98372251  0.82448323     0.01100
C1143       C  0.71469769  0.00004177  0.79086133     0.16100
C1144       C  0.67820407  0.00147581  0.76720603     0.25500
C1145       C  0.65665204  0.98676570  0.77663812    -0.40900
C1146       C  0.67207356  0.97083695  0.81037800     0.32500
C1147       C  0.76916757  0.97980930  0.84780552     0.01100
F1148       F  0.73476350  0.01366324  0.78040425    -0.13200
F1149       F  0.65159106  0.95629173  0.81984388    -0.13700
C1150       C  0.78374414  0.94727513  0.85545646     0.16100
C1151       C  0.81995000  0.94309193  0.87365729     0.25500
C1152       C  0.84277147  0.97147427  0.88477404    -0.40800
C1153       C  0.83236813  0.50008861  0.87264433     0.32400
C1154       C  0.79585228  0.50401603  0.85178645     0.14100
F1155       F  0.76269117  0.91930642  0.84382945    -0.13200
F1156       F  0.85297443  0.52836069  0.88410492    -0.13700
F1157       F  0.83244326  0.91095811  0.87997894    -0.16000
F1158       F  0.78228328  0.53574174  0.84395437    -0.14500
F1159       F  0.72308758  0.95337733  0.86647230    -0.14500
F1160       F  0.66366625  0.50527950  0.72622335    -0.15900
C1161       C  0.09882523  0.78427677  0.83628723     0.14100
C1162       C  0.11364271  0.81697099  0.84314379     0.01100
C1163       C  0.13009887  0.82717693  0.82587571     0.16100
C1164       C  0.12969175  0.80567423  0.80045435     0.25500
C1165       C  0.11277553  0.77384073  0.79200687    -0.40900
C1166       C  0.09802035  0.76314565  0.81070167     0.32500
C1167       C  0.10649781  0.84142510  0.86359455     0.01100
F1168       F  0.14479219  0.85859517  0.83214918    -0.13200
F1169       F  0.08024871  0.73318315  0.80198824    -0.13700
C1170       C  0.11823473  0.83510690  0.89967262     0.16100
C1171       C  0.10561039  0.85418547  0.91648819     0.25500
C1172       C  0.08001667  0.87948513  0.89718564    -0.40800
C1173       C  0.06940038  0.88653720  0.86139533     0.32400
C1174       C  0.08273904  0.86790743  0.84500638     0.14100
F1175       F  0.14088497  0.80942661  0.91818855    -0.13200
F1176       F  0.04449412  0.91005848  0.84126693    -0.13700
F1177       F  0.11789025  0.84710039  0.95144679    -0.17200
F1178       F  0.07030992  0.87401646  0.80983849    -0.14500
F1179       F  0.08213244  0.77402115  0.85191166    -0.14500
F1180       F  0.14294439  0.81711369  0.78177802    -0.15900
C1181       C  0.21849661  0.73417806  0.78743863     0.14100
C1182       C  0.23401744  0.72371404  0.82341299     0.01100
C1183       C  0.21241357  0.71592009  0.83548470     0.16100
C1184       C  0.17596695  0.71958680  0.81221208     0.25500
C1185       C  0.16062841  0.73133745  0.77665768    -0.40900
C1186       C  0.18221566  0.73822635  0.76439840     0.32500
C1187       C  0.27272597  0.72103282  0.84789822     0.01100
F1188       F  0.22663370  0.70506706  0.86986801    -0.13200
F1189       F  0.16814470  0.74940658  0.73016884    -0.13700
C1190       C  0.29409631  0.74948051  0.85429646     0.16100
C1191       C  0.33058194  0.74638072  0.87394760     0.25500
C1192       C  0.34656224  0.71476695  0.88834591    -0.40800
C1193       C  0.32503834  0.68675934  0.88366354     0.32400
C1194       C  0.28853875  0.68981852  0.86335504     0.14100
F1195       F  0.27948306  0.78034166  0.84120956    -0.13200
F1196       F  0.33922028  0.65625663  0.89878594    -0.13700
F1197       F  0.35002778  0.77417923  0.87788101    -0.16000
F1198       F  0.26858341  0.66194622  0.85784100    -0.14500
F1199       F  0.23856015  0.74004175  0.77448799    -0.14500
F1200       F  0.15555784  0.71072060  0.82400264    -0.15900
C1201       C  0.62747952  0.58389320  0.82370261     0.14100
C1202       C  0.61553758  0.57139297  0.84450433     0.01100
C1203       C  0.60562433  0.53704870  0.84116918     0.16100
C1204       C  0.60566191  0.51612448  0.81598032     0.25500
C1205       C  0.61553114  0.52912626  0.79368167    -0.40900
C1206       C  0.62723563  0.56289175  0.79821732     0.32500
C1207       C  0.60786858  0.59474327  0.86517113     0.01100
F1208       F  0.59255375  0.52463418  0.85969088    -0.13200
F1209       F  0.63537654  0.57627438  0.77579377    -0.13700
C1210       C  0.58231692  0.61980909  0.84669550     0.16100
C1211       C  0.56963041  0.63763787  0.86405057     0.25500
C1212       C  0.58221183  0.63067171  0.90046696    -0.40800
C1213       C  0.60967251  0.60714065  0.91957056     0.32400
C1214       C  0.62225612  0.58933465  0.90203207     0.14100
F1215       F  0.56792490  0.62553084  0.81100442    -0.13200
F1216       F  0.62403781  0.60076394  0.95510239    -0.13700
F1217       F  0.54377349  0.66049535  0.84439457    -0.16000
F1218       F  0.64790486  0.56608684  0.92081044    -0.14500
F1219       F  0.63711638  0.61698669  0.82640787    -0.14500
F1220       F  0.57000464  0.98956798  0.79532091    -0.15900
C1221       C  0.44342402  0.77626882  0.10053956     0.14100
C1222       C  0.42031568  0.80347998  0.08346192     0.01100
C1223       C  0.40881872  0.81187842  0.04793598     0.16100
C1224       C  0.42136396  0.79438794  0.03020702     0.25500
C1225       C  0.44590160  0.76795327  0.04777226    -0.40900
C1226       C  0.45622370  0.75877035  0.08306523     0.32500
C1227       C  0.41242467  0.82584932  0.10463060     0.01100
F1228       F  0.38602540  0.83774416  0.03071479    -0.13200
F1229       F  0.47982116  0.73374657  0.10153052    -0.13700
C1230       C  0.42580263  0.85920267  0.11256484     0.16100
C1231       C  0.42515742  0.87843538  0.13840323     0.25500
C1232       C  0.41031378  0.86503675  0.15602575    -0.40800
C1233       C  0.39438037  0.83278688  0.14610820     0.32400
C1234       C  0.39549586  0.81319960  0.12053152     0.14100
F1235       F  0.44175749  0.87228721  0.09717534    -0.13200
F1236       F  0.37999203  0.81943332  0.16297148    -0.13700
F1237       F  0.44072562  0.90957988  0.14771784    -0.16000
F1238       F  0.38129465  0.78147608  0.11227128    -0.14500
F1239       F  0.45520571  0.76781386  0.13506772    -0.14500
F1240       F  0.41008340  0.80420488  0.99619174    -0.15900
C1241       C  0.73787000  0.69043820  0.11352636     0.14100
C1242       C  0.75150325  0.66501127  0.10280748     0.01100
C1243       C  0.72826665  0.64434546  0.07288916     0.16100
C1244       C  0.69204454  0.64950338  0.05357476     0.25500
C1245       C  0.67837366  0.67582163  0.06348765    -0.40900
C1246       C  0.70174510  0.69597253  0.09396106     0.32500
C1247       C  0.78999863  0.66054204  0.12293069     0.01100
F1248       F  0.74068675  0.61970188  0.06180207    -0.13200
F1249       F  0.68961736  0.72049473  0.10547637    -0.13700
C1250       C  0.80562706  0.62967370  0.14011584     0.16100
C1251       C  0.84222219  0.62688775  0.16209628     0.25500
C1252       C  0.86365429  0.65478402  0.16692287    -0.40800
C1253       C  0.84800118  0.68519208  0.14871811     0.32400
C1254       C  0.81151774  0.68800224  0.12677204     0.14100
F1255       F  0.78549516  0.60278377  0.13699193    -0.13200
F1256       F  0.86818015  0.71224053  0.15244034    -0.13700
F1257       F  0.85680299  0.59766538  0.18043499    -0.16000
F1258       F  0.79709377  0.71768250  0.10940311    -0.14500
F1259       F  0.75964697  0.70962263  0.14344555    -0.14500
F1260       F  0.67045943  0.62925688  0.02458069    -0.15900
C1261       C  0.94396531  0.57099702  0.07238253     0.14100
C1262       C  0.92664451  0.55299653  0.08533613     0.01100
C1263       C  0.92001982  0.51802131  0.07758111     0.16100
C1264       C  0.93155657  0.50124930  0.05850629     0.25500
C1265       C  0.94950707  0.51913525  0.04639377    -0.40900
C1266       C  0.95523965  0.55421916  0.05308342     0.32500
C1267       C  0.91892405  0.57003126  0.10990038     0.01100
F1268       F  0.90274322  0.49993896  0.08888734    -0.13200
F1269       F  0.96483678  0.07304753  0.03562351    -0.13700
C1270       C  0.90162819  0.60146905  0.10075925     0.16100
C1271       C  0.90024902  0.62024912  0.12659513     0.25500
C1272       C  0.91541450  0.60756501  0.16177428    -0.40800
C1273       C  0.93009242  0.57496477  0.16992127     0.32400
C1274       C  0.93213704  0.55652858  0.14443869     0.14100
F1275       F  0.88754657  0.61480415  0.06731774    -0.13200
F1276       F  0.94456750  0.56184259  0.20353011    -0.13700
F1277       F  0.88704102  0.65208222  0.11812907    -0.16000
F1278       F  0.94956944  0.52664315  0.15464175    -0.14500
F1279       F  0.95183183  0.60448679  0.08018633    -0.14500
F1280       F  0.92520868  0.46744827  0.05183480    -0.15900
C1281       C  0.40246704  0.91200732  0.77964386     0.14100
C1282       C  0.39238973  0.87923519  0.76462371     0.01100
C1283       C  0.37795208  0.87454937  0.72754750     0.16100
C1284       C  0.37686212  0.90165803  0.70666804     0.25500
C1285       C  0.38975571  0.93377448  0.72257316    -0.40900
C1286       C  0.40139867  0.93904378  0.75881537     0.32500
C1287       C  0.40352858  0.84975535  0.78912967     0.01100
F1288       F  0.36726124  0.84321603  0.71230418    -0.13200
F1289       F  0.41419818  0.96984595  0.77475138    -0.13700
C1290       C  0.39097540  0.84467201  0.81102914     0.16100
C1291       C  0.40586476  0.81990882  0.83811112     0.25500
C1292       C  0.43422869  0.80029205  0.84432539    -0.40800
C1293       C  0.44607077  0.80505906  0.82152826     0.32400
C1294       C  0.43057381  0.82919995  0.79403491     0.14100
F1295       F  0.36468731  0.86414139  0.80656960    -0.13200
F1296       F  0.47377540  0.78754715  0.82669639    -0.13700
F1297       F  0.39265760  0.81546365  0.85839108    -0.16000
F1298       F  0.44343660  0.83386778  0.77343813    -0.14500
F1299       F  0.41647275  0.91715560  0.81538195    -0.14500
F1300       F  0.36677928  0.89570771  0.67212174    -0.15900
C1301       C  0.20874829  0.93368262  0.57219301     0.14100
C1302       C  0.22487089  0.96530888  0.58694560     0.01100
C1303       C  0.20370559  0.99347711  0.58083441     0.16100
C1304       C  0.16709248  0.99009552  0.56032864     0.25500
C1305       C  0.15078297  0.95841533  0.54539069    -0.40900
C1306       C  0.17220234  0.93025445  0.55147590     0.32500
C1307       C  0.26373695  0.96859323  0.60861338     0.01100
F1308       F  0.21848985  0.02437571  0.59470843    -0.13200
F1309       F  0.15792084  0.89921524  0.53745583    -0.13700
C1310       C  0.28223207  0.95925220  0.59343007     0.16100
C1311       C  0.31889127  0.96051940  0.61419789     0.25500
C1312       C  0.33778033  0.97155485  0.65041006    -0.40800
C1313       C  0.31963149  0.48001957  0.66370868     0.32400
C1314       C  0.28296809  0.47828772  0.64283928     0.14100
F1315       F  0.26469337  0.94914069  0.55828776    -0.13200
F1316       F  0.33698505  0.49103855  0.69852449    -0.13700
F1317       F  0.33602265  0.95027691  0.59917070    -0.16000
F1318       F  0.26540621  0.48775422  0.65768432    -0.14500
F1319       F  0.22854616  0.90577334  0.57869716    -0.14500
F1320       F  0.14772955  0.01767788  0.55618657    -0.15900
C1321       C  0.07678773  0.58399164  0.63876127     0.14100
C1322       C  0.09847224  0.60862057  0.63786345     0.01100
C1323       C  0.10835993  0.60409296  0.61353184     0.16100
C1324       C  0.09561508  0.57617893  0.58960333     0.25500
C1325       C  0.07205746  0.55250903  0.58899687    -0.40900
C1326       C  0.06398925  0.55627656  0.61498900     0.32500
C1327       C  0.10806911  0.63988401  0.66058979     0.01100
F1328       F  0.13004513  0.62691425  0.61262359    -0.13200
F1329       F  0.04246725  0.53391848  0.61675501    -0.13700
C1330       C  0.12353082  0.63733930  0.69812066     0.16100
C1331       C  0.12411278  0.66524238  0.71798270     0.25500
C1332       C  0.11019397  0.69652866  0.70087608    -0.40800
C1333       C  0.09793607  0.69993077  0.66417570     0.32400
C1334       C  0.09664795  0.67186230  0.64414204     0.14100
F1335       F  0.13589395  0.60708621  0.71503216    -0.13200
F1336       F  0.08500300  0.73004329  0.64709811    -0.13700
F1337       F  0.13497027  0.66060897  0.75291168    -0.16000
F1338       F  0.08138221  0.67532814  0.60799693    -0.14500
F1339       F  0.06623175  0.58773516  0.66146028    -0.14500
F1340       F  0.10607753  0.57269808  0.56679569    -0.15900
C1341       C  0.90682923  0.77271098  0.32655660     0.14100
C1342       C  0.89729598  0.78099308  0.29147569     0.01100
C1343       C  0.89089957  0.81509622  0.28053611     0.16100
C1344       C  0.89707273  0.84068625  0.30519653     0.25500
C1345       C  0.90933879  0.83264203  0.34118529    -0.40900
C1346       C  0.91233635  0.79830470  0.35107430     0.32500
C1347       C  0.89868915  0.75485963  0.26834206     0.01100
F1348       F  0.88030117  0.82377060  0.24640599    -0.13200
F1349       F  0.92355931  0.78956267  0.38535970    -0.13700
C1350       C  0.87989583  0.72405175  0.25987337     0.16100
C1351       C  0.88549279  0.69774505  0.24254443     0.25500
C1352       C  0.90975711  0.70204331  0.23325455    -0.40800
C1353       C  0.92680848  0.73354293  0.23965956     0.32400
C1354       C  0.92166620  0.75955349  0.25737546     0.14100
F1355       F  0.85711127  0.71903132  0.26958218    -0.13200
F1356       F  0.94953104  0.73867903  0.22986141    -0.13700
F1357       F  0.86895774  0.66745307  0.23701008    -0.16000
F1358       F  0.94100517  0.78852831  0.26600013    -0.14500
F1359       F  0.91373449  0.74007948  0.33813620    -0.14500
F1360       F  0.89238291  0.87353341  0.29427454    -0.15900
C1361       C  0.75878859  0.94574964  0.35571771     0.14100
C1362       C  0.74425865  0.91353994  0.34129526     0.01100
C1363       C  0.76690118  0.88619843  0.34950782     0.16100
C1364       C  0.80331612  0.89112572  0.37039135     0.25500
C1365       C  0.81814599  0.92369862  0.38376350    -0.40900
C1366       C  0.79528746  0.95083028  0.37668562     0.32500
C1367       C  0.70574921  0.90898337  0.31481648     0.01100
F1368       F  0.75360960  0.85466077  0.33651149    -0.13200
F1369       F  0.80811648  0.98248141  0.38962816    -0.13700
C1370       C  0.69268529  0.89885033  0.27916662     0.16100
C1371       C  0.65664218  0.89493920  0.25357487     0.25500
C1372       C  0.63266633  0.90142676  0.26283953    -0.40800
C1373       C  0.64560000  0.91190670  0.29840389     0.32400
C1374       C  0.68188497  0.91533631  0.32430290     0.14100
F1375       F  0.71494099  0.89341556  0.26889816    -0.13200
F1376       F  0.62310904  0.92022450  0.30761421    -0.13700
F1377       F  0.64506646  0.88479091  0.21951290    -0.16000
F1378       F  0.69371718  0.92475149  0.35863153    -0.14500
F1379       F  0.73755852  0.97268110  0.34814133    -0.14500
F1380       F  0.82386225  0.86408095  0.37606953    -0.15900
C1381       C  0.60799541  0.53110355  0.11683991     0.14100
C1382       C  0.59373979  0.52704399  0.13734193     0.01100
C1383       C  0.57190263  0.55239342  0.13616288     0.16100
C1384       C  0.56410271  0.58109865  0.11471967     0.25500
C1385       C  0.57743498  0.58498347  0.09314374    -0.40900
C1386       C  0.60024514  0.55991007  0.09522540     0.32500
C1387       C  0.60123744  0.99876575  0.16063786     0.01100
F1388       F  0.55616947  0.54834895  0.15408318    -0.13200
F1389       F  0.61464879  0.56279296  0.07590834    -0.13700
C1390       C  0.60791810  0.99987455  0.19548635     0.16100
C1391       C  0.60271921  0.97098215  0.21015090     0.25500
C1392       C  0.59135536  0.94038678  0.19043212    -0.40800
C1393       C  0.58725848  0.93860735  0.15684052     0.32400
C1394       C  0.59213759  0.96757849  0.14200083     0.14100
F1395       F  0.62289160  0.52677866  0.21300023    -0.13200
F1396       F  0.57677715  0.90914150  0.13760227    -0.13700
F1397       F  0.60570987  0.97376454  0.24207431    -0.16000
F1398       F  0.58512647  0.96577082  0.10816573    -0.14500
F1399       F  0.62878477  0.50676108  0.11707721    -0.14500
F1400       F  0.54200720  0.60418667  0.11397370    -0.15900
C1401       C  0.05122293  0.74178870  0.15146516     0.14100
C1402       C  0.07829183  0.74361686  0.14591417     0.01100
C1403       C  0.10168676  0.71637196  0.15684168     0.16100
C1404       C  0.09770192  0.68758188  0.17273550     0.25500
C1405       C  0.07075988  0.68610846  0.17850321    -0.40900
C1406       C  0.04772725  0.71350123  0.16791524     0.32500
C1407       C  0.07980676  0.77311079  0.12629683     0.01100
F1408       F  0.12782294  0.71738109  0.15141659    -0.13200
F1409       F  0.02115307  0.71247132  0.17269487    -0.13700
C1410       C  0.08062539  0.80618804  0.13853192     0.16100
C1411       C  0.07389121  0.83402577  0.11622501     0.25500
C1412       C  0.06677216  0.82933707  0.08143551    -0.40800
C1413       C  0.06908970  0.79645256  0.07054428     0.32400
C1414       C  0.07523486  0.76853260  0.09268660     0.14100
F1415       F  0.08635708  0.81134357  0.17153264    -0.13200
F1416       F  0.06291495  0.79091816  0.03741776    -0.13700
F1417       F  0.07360910  0.86552660  0.12840006    -0.16000
F1418       F  0.07401493  0.73683275  0.08006038    -0.14500
F1419       F  0.02701949  0.76677191  0.13926751    -0.14500
F1420       F  0.11877055  0.66048230  0.18053002    -0.15900
C1421       C  0.07524001  0.54429732  0.28750673     0.14100
C1422       C  0.07500669  0.56226626  0.31457583     0.01100
C1423       C  0.07879869  0.59782907  0.31629203     0.16100
C1424       C  0.07984746  0.61522086  0.28955264     0.25500
C1425       C  0.07674972  0.59728990  0.26066392    -0.40900
C1426       C  0.07557764  0.56169999  0.26046519     0.32500
C1427       C  0.06572384  0.54431512  0.33731571     0.01100
F1428       F  0.07845961  0.61590533  0.34197629    -0.13200
F1429       F  0.07278551  0.54389269  0.23291639    -0.13700
C1430       C  0.08718751  0.54620581  0.37532166     0.16100
C1431       C  0.07704894  0.52995839  0.39605973     0.25500
C1432       C  0.04524726  0.51143480  0.37904245    -0.40800
C1433       C  0.02400395  0.50957432  0.34088899     0.32400
C1434       C  0.03406012  0.52590739  0.32040042     0.14100
F1435       F  0.11807460  0.56356030  0.39234032    -0.13200
F1436       F  0.98728116  0.00085097  0.32401299    -0.13700
F1437       F  0.09847365  0.53221618  0.43271237    -0.16000
F1438       F  0.01206352  0.52469192  0.28371290    -0.14500
F1439       F  0.07304155  0.50987499  0.28611780    -0.14500
F1440       F  0.08038798  0.64968212  0.28993348    -0.15900
C1441       C  0.18304738  0.63273666  0.28021783     0.14100
C1442       C  0.19463052  0.66475467  0.29735494     0.01100
C1443       C  0.16918619  0.68871122  0.29114518     0.16100
C1444       C  0.13327215  0.68099166  0.26785429     0.25500
C1445       C  0.12213670  0.64902988  0.25105348    -0.40900
C1446       C  0.14726998  0.62486984  0.25784661     0.32500
C1447       C  0.23305057  0.67297726  0.32081255     0.01100
F1448       F  0.17899368  0.71949605  0.30781099    -0.13200
F1449       F  0.13695774  0.59406240  0.24126905    -0.13700
C1450       C  0.24658400  0.70312341  0.31595262     0.16100
C1451       C  0.28286465  0.70951986  0.33627718     0.25500
C1452       C  0.30669058  0.68555613  0.36147551    -0.40800
C1453       C  0.29295526  0.65588126  0.36703090     0.32400
C1454       C  0.25677264  0.64987206  0.34725839     0.14100
F1455       F  0.22482154  0.72592174  0.29041439    -0.13200
F1456       F  0.31447392  0.63256742  0.39205465    -0.13700
F1457       F  0.29454592  0.73881755  0.33037548    -0.16000
F1458       F  0.24496337  0.62130302  0.35426661    -0.14500
F1459       F  0.20630995  0.60942897  0.28380040    -0.14500
F1460       F  0.10929238  0.70456711  0.26185382    -0.15900
C1461       C  0.55195849  0.84340758  0.62882560     0.14100
C1462       C  0.58329180  0.85907839  0.63762597     0.01100
C1463       C  0.59857981  0.84886384  0.61942951     0.16100
C1464       C  0.58250745  0.82375878  0.59241985     0.25500
C1465       C  0.55060297  0.80836255  0.58290448    -0.40900
C1466       C  0.53582370  0.81828347  0.60191131     0.32500
C1467       C  0.59728554  0.88872307  0.66257319     0.01100
F1468       F  0.62883974  0.86367251  0.62742713    -0.13200
F1469       F  0.50485637  0.80489027  0.59343206    -0.13700
C1470       C  0.60655683  0.88583163  0.69835490     0.16100
C1471       C  0.61187945  0.91500503  0.71887339     0.25500
C1472       C  0.60768630  0.94730923  0.70371523    -0.40800
C1473       C  0.60144789  0.95014689  0.66924231     0.32400
C1474       C  0.59625872  0.92108095  0.64878718     0.14100
F1475       F  0.60766783  0.85488682  0.71231746    -0.13200
F1476       F  0.59700569  0.98116650  0.65405265    -0.13700
F1477       F  0.61688425  0.91169701  0.75173345    -0.16000
F1478       F  0.58643086  0.92466414  0.61404743    -0.14500
F1479       F  0.53586350  0.85386952  0.64493577    -0.14500
F1480       F  0.59826904  0.81464538  0.57558094    -0.15900
C1481       C  0.43307343  0.54492723  0.30912663     0.14100
C1482       C  0.40648188  0.52202460  0.30192055     0.01100
C1483       C  0.38552750  0.52922830  0.31475291     0.16100
C1484       C  0.39131980  0.55907023  0.33478347     0.25500
C1485       C  0.41848064  0.58200022  0.34253821    -0.40900
C1486       C  0.43920341  0.57435458  0.32931104     0.32500
C1487       C  0.39426023  0.99787214  0.27363479     0.01100
F1488       F  0.35927653  0.50756518  0.30751215    -0.13200
F1489       F  0.46645374  0.59470027  0.33692710    -0.13700
C1490       C  0.40481645  0.96636617  0.29120509     0.16100
C1491       C  0.40860072  0.93851762  0.27425384     0.25500
C1492       C  0.40158773  0.94168093  0.23941733    -0.40800
C1493       C  0.38833830  0.97244019  0.22073810     0.32400
C1494       C  0.39037914  0.49260032  0.24500606     0.14100
F1495       F  0.41424174  0.96331510  0.32585993    -0.13200
F1496       F  0.38214394  0.97653602  0.18744085    -0.13700
F1497       F  0.42094340  0.90889122  0.29259009    -0.16000
F1498       F  0.37895866  0.52256467  0.22718009    -0.14500
F1499       F  0.45380175  0.53832257  0.29718454    -0.14500
F1500       F  0.37015748  0.56559349  0.34619241    -0.15900
C1501       C  0.37140558  0.58303478  0.52616155     0.14100
C1502       C  0.38752388  0.58649705  0.56360316     0.01100
C1503       C  0.41098786  0.61357177  0.58213469     0.16100
C1504       C  0.41959788  0.63594232  0.56390759     0.25500
C1505       C  0.40506093  0.63145298  0.52662296    -0.40900
C1506       C  0.37971036  0.60547358  0.50772931     0.32500
C1507       C  0.38354721  0.55964666  0.58423507     0.01100
F1508       F  0.42775913  0.61673653  0.61856590    -0.13200
F1509       F  0.36375425  0.60084622  0.47157693    -0.13700
C1510       C  0.39656498  0.52710560  0.58585788     0.16100
C1511       C  0.39791508  0.50281825  0.60932952     0.25500
C1512       C  0.38618414  0.51058713  0.63148084    -0.40800
C1513       C  0.37181194  0.54259226  0.62888809     0.32400
C1514       C  0.37068580  0.56710886  0.60552227     0.14100
F1515       F  0.41085025  0.51985335  0.56707946    -0.13200
F1516       F  0.36198150  0.55110319  0.65138503    -0.13700
F1517       F  0.41304230  0.47242804  0.61240599    -0.16000
F1518       F  0.35901452  0.59870968  0.60523332    -0.14500
F1519       F  0.34872355  0.55693993  0.50770361    -0.14500
F1520       F  0.44395488  0.66052615  0.58349759    -0.15900
C1521       C  0.55278185  0.77289280  0.33429588     0.14100
C1522       C  0.56620266  0.80611229  0.34446340     0.01100
C1523       C  0.57088410  0.82045315  0.37569734     0.16100
C1524       C  0.56034858  0.80278869  0.39523716     0.25500
C1525       C  0.54503008  0.77015578  0.38399696    -0.40900
C1526       C  0.54252291  0.75499132  0.35395371     0.32500
C1527       C  0.57166103  0.82702281  0.32041166     0.01100
F1528       F  0.58480938  0.85212256  0.38669779    -0.13200
F1529       F  0.52950871  0.72300934  0.34301086    -0.13700
C1530       C  0.55226277  0.85686913  0.30540901     0.16100
C1531       C  0.55411954  0.87496219  0.27970428     0.25500
C1532       C  0.57514480  0.86351168  0.26823453    -0.40800
C1533       C  0.59557572  0.83439966  0.28405785     0.32400
C1534       C  0.59406066  0.81638403  0.31027081     0.14100
F1535       F  0.53008954  0.86758654  0.31428355    -0.13200
F1536       F  0.61531153  0.82237039  0.27266068    -0.13700
F1537       F  0.53439030  0.90323387  0.26497101    -0.16000
F1538       F  0.61383078  0.78818812  0.32522221    -0.14500
F1539       F  0.54788148  0.75834886  0.30418208    -0.14500
F1540       F  0.56379815  0.81842493  0.42417757    -0.15900
C1541       C  0.69957987  0.69749204  0.59801712     0.14100
C1542       C  0.71519307  0.72433692  0.59112670     0.01100
C1543       C  0.69380603  0.74762327  0.56374379     0.16100
C1544       C  0.65727625  0.74385877  0.54308571     0.25500
C1545       C  0.64137076  0.71683187  0.54975824    -0.40900
C1546       C  0.66308931  0.69381708  0.57770896     0.32500
C1547       C  0.75383915  0.72753341  0.61202548     0.01100
F1548       F  0.70841604  0.77356235  0.55640738    -0.13200
F1549       F  0.64909753  0.66805584  0.58600397    -0.13700
C1550       C  0.77366422  0.70157541  0.61043338     0.16100
C1551       C  0.81022029  0.70405542  0.63069852     0.25500
C1552       C  0.82749568  0.73237473  0.65298920    -0.40800
C1553       C  0.80772829  0.75863305  0.65417410     0.32400
C1554       C  0.77110810  0.75632432  0.63370472     0.14100
F1555       F  0.75749922  0.67403454  0.58881167    -0.13200
F1556       F  0.82407337  0.78596961  0.67607221    -0.13700
F1557       F  0.82876169  0.67911368  0.62811041    -0.16000
F1558       F  0.75254335  0.78173134  0.63572545    -0.14500
F1559       F  0.71976542  0.67504806  0.62487468    -0.14500
F1560       F  0.63763452  0.76620297  0.51593599    -0.15900
C1561       C  0.93887849  0.59402077  0.80556343     0.14100
C1562       C  0.90430395  0.60397890  0.79173736     0.01100
C1563       C  0.88669253  0.58944160  0.80599284     0.16100
C1564       C  0.90322503  0.56486816  0.83322308     0.25500
C1565       C  0.93753474  0.55418541  0.84631482    -0.40900
C1566       C  0.95519448  0.56921181  0.83230388     0.32500
C1567       C  0.88761796  0.63002208  0.76295328     0.01100
F1568       F  0.85332992  0.59860524  0.79311092    -0.13200
F1569       F  0.98881179  0.56081248  0.84545544    -0.13700
C1570       C  0.88666737  0.62528424  0.73123030     0.16100
C1571       C  0.88174182  0.65295008  0.70935204     0.25500
C1572       C  0.87603147  0.68537594  0.71801002    -0.40800
C1573       C  0.87188793  0.68913186  0.74662344     0.32400
C1574       C  0.87808129  0.66167440  0.76935783     0.14100
F1575       F  0.89394474  0.59445647  0.72347949    -0.13200
F1576       F  0.86587273  0.72029245  0.75494516    -0.13700
F1577       F  0.88671366  0.64877303  0.68238341    -0.16000
F1578       F  0.87844829  0.66698451  0.79959367    -0.14500
F1579       F  0.95723438  0.60899506  0.79368407    -0.14500
F1580       F  0.88539131  0.55103235  0.84622326    -0.15900
C1581       C  0.87086325  0.78736421  0.58846507     0.14100
C1582       C  0.88366407  0.82092885  0.59766619     0.01100
C1583       C  0.88949026  0.83552865  0.62935064     0.16100
C1584       C  0.88653551  0.81571539  0.65345595     0.25500
C1585       C  0.87713240  0.78125058  0.64596841    -0.40900
C1586       C  0.86773004  0.76757175  0.61255209     0.32500
C1587       C  0.89639968  0.83865991  0.57782725     0.01100
F1588       F  0.90140322  0.86798759  0.63875368    -0.13200
F1589       F  0.85951840  0.73410784  0.60508545    -0.13700
C1590       C  0.88498683  0.87152447  0.56402248     0.16100
C1591       C  0.89975982  0.88907076  0.54833796     0.25500
C1592       C  0.92552055  0.87366588  0.54559854    -0.40800
C1593       C  0.93680826  0.84088383  0.55915226     0.32400
C1594       C  0.92260154  0.82359226  0.57540057     0.14100
F1595       F  0.85934545  0.88641241  0.56543825    -0.13200
F1596       F  0.96220487  0.82595014  0.55732214    -0.13700
F1597       F  0.88854206  0.92081264  0.53526267    -0.16000
F1598       F  0.93521725  0.79247584  0.58976175    -0.14500
F1599       F  0.86391698  0.77304837  0.55738440    -0.14500
F1600       F  0.89590747  0.82934780  0.68568421    -0.15900
loop_ 
_geom_bond_atom_site_label_1 
_geom_bond_atom_site_label_2 
_geom_bond_distance 
_geom_bond_site_symmetry_2 
_ccdc_geom_bond_type 
N1            C5   1.358       .  A
N1            C2   1.358       .  A
N1          C752   1.440       .  S
C2            C3   1.383       .  A
C2          C785   1.479       .  S
C3            C4   1.371       .  A
C3            H6   1.082       .  S
C4            C5   1.380       .  A
C4            H7   1.082       .  S
C5          C772   1.474       .  S
Zr8           O9   2.439       .  S
Zr8          O10   2.426       .  S
Zr8          O11   2.428       .  S
Zr8          O14   2.439       .  S
Zr8          O16   2.378       .  S
Zr8          O17   2.377       .  S
Zr8          O18   2.405       .  S
Zr8          O19   2.398       .  S
O9           H65   0.990       .  S
O9           H73   0.990       .  S
O10          C30   1.283       .  A
O11          C32   1.283       .  A
O12         Zr22   2.425       .  S
O12          C31   1.284       .  A
O13         Zr21   2.445       .  S
O13          C32   1.287       .  A
O14          C31   1.286       .  A
O15         Zr23   2.433       .  S
O15          C30   1.284       .  A
O16         Zr21   2.394       .  S
O16         Zr23   2.372       .  S
O17         Zr22   2.389       .  S
O17         Zr23   2.375       .  S
O17          H52   0.968       .  S
O18         Zr21   2.397       .  S
O18         Zr38   2.396       .  S
O18          H55   0.966       .  S
O19         Zr22   2.389       .  S
O19         Zr38   2.399       .  S
Zr20         O45   2.439       .  S
Zr20         O39   2.435       .  S
Zr20         O47   2.435       .  S
Zr20         O35   2.436       .  S
Zr20         O26   2.405       .  S
Zr20         O27   2.408       .  S
Zr20         O28   2.378       .  S
Zr20         O29   2.376       .  S
Zr21         O40   2.436       .  S
Zr21         O33   2.435       .  S
Zr21         O34   2.437       .  S
Zr21         O27   2.399       .  S
Zr21         O28   2.388       .  S
Zr22         O24   2.436       .  S
Zr22         O46   2.437       .  S
Zr22         O48   2.436       .  S
Zr22         O26   2.392       .  S
Zr22         O29   2.381       .  S
Zr23         O49   2.436       .  S
Zr23         O50   2.436       .  S
Zr23         O25   2.436       .  S
Zr23         O26   2.405       .  S
Zr23         O27   2.402       .  S
O24          H61   0.990       .  S
O25          H56   0.990       .  S
O25          H70   0.990       .  S
O27          H53   0.966       .  S
O28         Zr38   2.369       .  S
O29         Zr38   2.374       .  S
O29          H54   0.965       .  S
C30         C652   1.489       .  S
C31         C685   1.493       .  S
C32         C705   1.496       .  S
O33          H69   0.990       .  S
O34          C36   1.287       .  A
O35          C36   1.287       .  A
C36         C665   1.488       .  S
O37         Zr38   2.440       .  S
O37          H66   0.990       .  S
Zr38         O41   2.437       .  S
Zr38         O42   2.439       .  S
Zr38         O43   2.439       .  S
O39          C44   1.285       .  A
O40          H57   0.990       .  S
O40          H72   0.990       .  S
O41          H58   0.990       .  S
O42          H62   0.990       .  S
O42          H71   0.990       .  S
O43          C44   1.286       .  A
C44         C745   1.494       .  S
O45          H64   0.990       .  S
O45          H68   0.990       .  S
O46          H60   0.990       .  S
O46          H67   0.990       .  S
O47          C51   1.286       .  A
O48          C51   1.286       .  A
O49          H59   0.990       .  S
O50          H63   0.990       .  S
C51         C725   1.495       .  S
N74          C78   1.357       .  A
N74          C75   1.354       .  A
N74         C645   1.440       .  S
C75          C76   1.381       .  A
C75         C625   1.470       .  S
C76          C77   1.373       .  A
C76          H79   1.082       .  S
C77          C78   1.384       .  A
C77          H80   1.082       .  S
C78         C605   1.477       .  S
N81          C85   1.358       .  A
N81          C82   1.358       .  A
N81         C572   1.439       .  S
C82          C83   1.383       .  A
C82         C732   1.481       .  S
C83          C84   1.374       .  A
C83          H86   1.082       .  S
C84          C85   1.382       .  A
C84          H87   1.082       .  S
C85         C592   1.484       .  S
Zr88         O89   2.441       .  S
Zr88         O90   2.426       .  S
Zr88         O91   2.430       .  S
Zr88         O94   2.443       .  S
Zr88         O96   2.385       .  S
Zr88         O97   2.384       .  S
Zr88         O98   2.405       .  S
Zr88         O99   2.396       .  S
O89         H145   0.991       .  S
O89         H153   0.990       .  S
O90         C110   1.282       .  A
O91         C112   1.282       .  A
O92        Zr102   2.417       .  S
O92         C111   1.283       .  A
O93        Zr101   2.434       .  S
O93         C112   1.284       .  A
O94         C111   1.286       .  A
O95        Zr103   2.437       .  S
O95         C110   1.285       .  A
O96        Zr101   2.393       .  S
O96        Zr103   2.378       .  S
O97        Zr102   2.387       .  S
O97        Zr103   2.374       .  S
O97         H132   0.967       .  S
O98        Zr101   2.400       .  S
O98        Zr118   2.393   1_655  S
O98         H135   0.966       .  S
O99        Zr102   2.392       .  S
O99        Zr118   2.390   1_655  S
Zr100       O925   2.441       .  S
Zr100       O119   2.435       .  S
Zr100       O927   2.440       .  S
Zr100       O915   2.438       .  S
Zr100       O106   2.406   1_455  S
Zr100       O107   2.412   1_455  S
Zr100       O108   2.379       .  S
Zr100       O109   2.379       .  S
Zr101       O120   2.435   1_655  S
Zr101       O113   2.435       .  S
Zr101       O914   2.439   1_655  S
Zr101       O107   2.393       .  S
Zr101       O108   2.387   1_655  S
Zr102       O104   2.434   1_655  S
Zr102       O126   2.438       .  S
Zr102       O128   2.418   1_655  S
Zr102       O106   2.389       .  S
Zr102       O109   2.384   1_655  S
Zr103       O129   2.436       .  S
Zr103       O930   2.437       .  S
Zr103       O905   2.439       .  S
Zr103       O106   2.401       .  S
Zr103       O107   2.406       .  S
O104        H141   0.990   1_455  S
O105       Zr903   2.437   1_545  S
O105        H136   0.990       .  S
O105        H950   0.990       .  S
O107        H933   0.966       .  S
O108       Zr118   2.377       .  S
O109       Zr118   2.371       .  S
O109        H134   0.966       .  S
C110        C565   1.485       .  S
C111        C545   1.480       .  S
C112        C792   1.469       .  S
O113        H149   0.990       .  S
O114       Zr901   2.432   1_445  S
O114        C116   1.284       .  A
O115       Zr900   2.422   1_545  S
O115        C116   1.283       .  A
C116        C525   1.489       .  S
O117       Zr118   2.438       .  S
O117        H146   0.990       .  S
Zr118       O121   2.436       .  S
Zr118       O122   2.440       .  S
Zr118       O123   2.423       .  S
O119        C124   1.285       .  A
O120        H137   0.990       .  S
O120        H152   0.990       .  S
O121        H138   0.990       .  S
O122        H142   0.990       .  S
O122        H151   0.990       .  S
O123        C124   1.283       .  A
C124        C505   1.493       .  S
O125       Zr900   2.440   1_545  S
O125        H144   0.990       .  S
O125        H148   0.990       .  S
O126        H140   0.990       .  S
O126        H147   0.990       .  S
O127       Zr900   2.427   1_545  S
O127        C931   1.284   1_545  A
O128        C131   1.283       .  A
O129        H139   0.990       .  S
O130       Zr903   2.435   1_545  S
O130        H143   0.990       .  S
C131       C1432   1.487       .  S
C131        O927   1.286       .  A
H133        O907   0.966   1_545  S
H150        O905   0.990       .  S
N154        C158   1.355       .  A
N154        C955   1.357       .  A
N154        C512   1.441       .  S
C155        N954   1.355       .  A
C155        C156   1.381       .  A
C155        C712   1.473   1_565  S
C156        C957   1.374       .  A
C156        H159   1.082       .  S
C157        C158   1.381       .  A
C157        C956   1.371       .  A
C157        H160   1.082       .  S
C158        C485   1.471       .  S
N161        C165   1.359       .  A
N161        C162   1.362       .  A
N161        C452   1.439       .  S
C162        C163   1.386       .  A
C162        C472   1.489       .  S
C163        C164   1.372       .  A
C163        H166   1.083       .  S
C164        C165   1.381       .  A
C164        H167   1.082       .  S
C165        C552   1.486       .  S
Zr168       O169   2.439       .  S
Zr168       O170   2.425   1_556  S
Zr168       O171   2.434       .  S
Zr168       O174   2.435   1_556  S
Zr168       O176   2.383       .  S
Zr168       O177   2.378   1_556  S
Zr168       O178   2.405       .  S
Zr168       O179   2.403       .  S
O169        H225   0.990       .  S
O169        H233   0.990       .  S
O170        C190   1.283       .  A
O171        C192   1.285       .  A
O172       Zr182   2.414       .  S
O172        C191   1.283       .  A
O173       Zr181   2.433       .  S
O173        C192   1.284       .  A
O174        C191   1.286       .  A
O175       Zr183   2.443       .  S
O175        C190   1.286       .  A
O176       Zr181   2.389       .  S
O176       Zr183   2.375   1_556  S
O177       Zr182   2.384       .  S
O177       Zr183   2.362       .  S
O177        H212   0.967       .  S
O178       Zr181   2.397       .  S
O178       Zr198   2.396       .  S
O178        H215   0.966       .  S
O179       Zr182   2.391   1_556  S
O179       Zr198   2.397       .  S
Zr180       O205   2.440       .  S
Zr180       O199   2.448       .  S
Zr180       O207   2.436       .  S
Zr180       O195   2.430       .  S
Zr180       O186   2.402   1_556  S
Zr180       O187   2.410       .  S
Zr180       O188   2.378       .  S
Zr180       O189   2.378       .  S
Zr181       O200   2.437       .  S
Zr181       O193   2.436       .  S
Zr181       O194   2.433       .  S
Zr181       O187   2.390       .  S
Zr181       O188   2.387       .  S
Zr182       O184   2.435       .  S
Zr182       O206   2.438       .  S
Zr182       O208   2.429       .  S
Zr182       O186   2.385       .  S
Zr182       O189   2.380   1_554  S
Zr183       O209   2.435       .  S
Zr183       O210   2.435       .  S
Zr183       O185   2.437   1_554  S
Zr183       O186   2.399       .  S
Zr183       O187   2.405   1_554  S
O184        H221   0.990       .  S
O185        H216   0.990   1_556  S
O185        H230   0.990       .  S
O187        H213   0.966       .  S
O188       Zr198   2.369       .  S
O189       Zr198   2.372       .  S
O189        H214   0.966       .  S
C190        C445   1.488       .  S
C191        C585   1.487       .  S
C192        C412   1.494       .  S
O193        H229   0.990       .  S
O194        C196   1.286       .  A
O195        C196   1.285       .  A
C196        C492   1.492       .  S
O197       Zr198   2.434       .  S
O197        H226   0.990       .  S
Zr198       O201   2.434       .  S
Zr198       O202   2.439       .  S
Zr198       O203   2.428       .  S
O199        C204   1.288       .  A
O200        H217   0.990       .  S
O200        H232   0.990       .  S
O201        H218   0.990       .  S
O202        H222   0.990       .  S
O202        H231   0.990       .  S
O203        C204   1.283       .  A
C204        C392   1.497       .  S
O205        H224   0.991       .  S
O205        H228   0.990       .  S
O206        H220   0.990       .  S
O206        H227   0.990       .  S
O207        C211   1.286   1_556  A
O208        C211   1.285       .  A
O209        H219   0.990       .  S
O210        H223   0.990       .  S
C211        C425   1.493       .  S
N234        C238   1.362       .  A
N234        C235   1.360       .  A
N234        C385   1.444       .  S
C235        C236   1.382       .  A
C235        C365   1.479       .  S
C236        C237   1.368       .  A
C236        H239   1.083       .  S
C237        C238   1.382       .  A
C237        H240   1.082       .  S
C238        C532   1.482       .  S
N241        C245   1.357       .  A
N241       C1042   1.358       .  A
N241        C345   1.443       .  S
C242       N1041   1.353   1_545  A
C242        C243   1.381       .  A
C242        C405   1.468       .  S
C243       C1044   1.372   1_545  A
C243        H246   1.082       .  S
C244        C245   1.382       .  A
C244       C1043   1.370       .  A
C244        H247   1.082       .  S
C245        C672   1.474       .  S
N248        C252   1.358       .  A
N248        C249   1.355       .  A
N248        C325   1.441       .  S
C249        C250   1.380       .  A
C249        C432   1.473       .  S
C250        C251   1.375       .  A
C250        H253   1.082       .  S
C251        C252   1.384       .  A
C251        H254   1.082       .  S
C252        C692   1.483       .  S
Zr255       O256   2.439       .  S
Zr255       O257   2.420   1_556  S
Zr255       O258   2.433       .  S
Zr255       O261   2.440   1_556  S
Zr255       O263   2.379       .  S
Zr255       O264   2.382   1_556  S
Zr255       O265   2.402       .  S
Zr255       O266   2.397       .  S
O256        H312   0.990       .  S
O256        H320   0.990       .  S
O257        C277   1.282       .  A
O258        C279   1.285       .  A
O259       Zr269   2.426       .  S
O259        C278   1.285       .  A
O260       Zr268   2.446       .  S
O260        C279   1.288       .  A
O261        C278   1.287       .  A
O262       Zr270   2.444       .  S
O262        C277   1.286       .  A
O263       Zr268   2.389       .  S
O263       Zr270   2.370   1_556  S
O264       Zr269   2.392       .  S
O264       Zr270   2.371       .  S
O264        H299   0.966       .  S
O265       Zr268   2.402       .  S
O265       Zr285   2.395   1_455  S
O265        H302   0.966       .  S
O266       Zr269   2.396   1_556  S
O266       Zr285   2.388   1_455  S
Zr267      O1092   2.443       .  S
Zr267       O286   2.444       .  S
Zr267      O1094   2.425       .  S
Zr267      O1082   2.416       .  S
Zr267       O273   2.401   1_656  S
Zr267       O274   2.412   1_655  S
Zr267       O275   2.379       .  S
Zr267       O276   2.379       .  S
Zr268       O287   2.435   1_455  S
Zr268       O280   2.437       .  S
Zr268      O1081   2.452   1_455  S
Zr268       O274   2.396       .  S
Zr268       O275   2.388   1_455  S
Zr269       O271   2.435   1_455  S
Zr269       O293   2.435       .  S
Zr269       O295   2.443   1_455  S
Zr269       O273   2.382       .  S
Zr269       O276   2.385   1_454  S
Zr270       O296   2.436       .  S
Zr270      O1097   2.434       .  S
Zr270      O1072   2.435   1_554  S
Zr270       O273   2.401       .  S
Zr270       O274   2.408   1_554  S
O271        H308   0.990       .  S
O272      Zr1070   2.436   1_546  S
O272        H303   0.990   1_556  S
O272       H1117   0.990       .  S
O274       H1100   0.966       .  S
O275       Zr285   2.373       .  S
O276       Zr285   2.375       .  S
O276        H301   0.965       .  S
C277        C332   1.496       .  S
C278        C612   1.483       .  S
C279        C372   1.495       .  S
O280        H316   0.990       .  S
O281      Zr1068   2.440   1_645  S
O281        C283   1.288       .  A
O282      Zr1067   2.424   1_545  S
O282        C283   1.284       .  A
C283        C765   1.481       .  S
O284       Zr285   2.434       .  S
O284        H313   0.990       .  S
Zr285       O288   2.435       .  S
Zr285       O289   2.437       .  S
Zr285       O290   2.419       .  S
O286        C291   1.287       .  A
O287        H304   0.990       .  S
O287        H319   0.990       .  S
O288        H305   0.990       .  S
O289        H309   0.990       .  S
O289        H318   0.990       .  S
O290        C291   1.281       .  A
C291        C352   1.495       .  S
O292      Zr1067   2.439   1_545  S
O292        H311   0.990       .  S
O292        H315   0.990       .  S
O293        H307   0.990       .  S
O293        H314   0.990       .  S
O294      Zr1067   2.426   1_545  S
O294       C1098   1.284   1_556  A
O295        C298   1.286       .  A
O296        H306   0.990       .  S
O297      Zr1070   2.434   1_545  S
O297        H310   0.990       .  S
C298       C1265   1.477       .  S
C298       O1094   1.283   1_554  A
H300       O1074   0.966       .  S
H317       O1072   0.990       .  S
C321        C322   1.407       .  A
C321        C326   1.401       .  A
C321        F339   1.357       .  S
C322        C323   1.406       .  A
C322        C327   1.484       .  S
C323        C324   1.399       .  A
C323        F328   1.358       .  S
C324        C325   1.405       .  A
C324        F340   1.357       .  S
C325        C326   1.405       .  A
C326        F329   1.356       .  S
C327        C330   1.404       .  A
C327        C334   1.403       .  A
C330        C331   1.401       .  A
C330        F335   1.358       .  S
C331        C332   1.416       .  A
C331        F337   1.358       .  S
C332        C333   1.413       .  A
C333        C334   1.400       .  A
C333        F336   1.357       .  S
C334        F338   1.358       .  S
C341        C342   1.406       .  A
C341        C346   1.402       .  A
C341        F359   1.358       .  S
C342        C343   1.404       .  A
C342        C347   1.483       .  S
C343        C344   1.401       .  A
C343        F348   1.358       .  S
C344        C345   1.407       .  A
C344       F1160   1.357       .  S
C345        C346   1.405       .  A
C346        F349   1.356       .  S
C347        C350   1.401       .  A
C347       C1154   1.405       .  A
C350        C351   1.399       .  A
C350        F355   1.358       .  S
C351        C352   1.416       .  A
C351        F357   1.358       .  S
C352       C1153   1.412       .  A
C353        C354   1.405       .  A
C353       C1152   1.414   1_545  A
C353        F356   1.358       .  S
C354       C1147   1.408   1_545  A
C354        F358   1.358       .  S
F360       C1144   1.357       .  S
C361        C362   1.401       .  A
C361        C366   1.395       .  A
C361        F379   1.358       .  S
C362        C363   1.408       .  A
C362        C367   1.482       .  S
C363        C364   1.408       .  A
C363        F368   1.357       .  S
C364        C365   1.406       .  A
C364        F380   1.357       .  S
C365        C366   1.406       .  A
C366        F369   1.358       .  S
C367        C370   1.402       .  A
C367        C374   1.404       .  A
C370        C371   1.402       .  A
C370        F375   1.358       .  S
C371        C372   1.415       .  A
C371        F377   1.358       .  S
C372        C373   1.411       .  A
C373        C374   1.401       .  A
C373        F376   1.358       .  S
C374        F378   1.358       .  S
C381        C382   1.407       .  A
C381        C386   1.401       .  A
C381        F399   1.358       .  S
C382        C383   1.409       .  A
C382        C387   1.492       .  S
C383        C384   1.405       .  A
C383        F388   1.357       .  S
C384        C385   1.405       .  A
C384        F400   1.357       .  S
C385        C386   1.406       .  A
C386        F389   1.357       .  S
C387        C390   1.407       .  A
C387        C394   1.404       .  A
C390        C391   1.404       .  A
C390        F395   1.358       .  S
C391        C392   1.411       .  A
C391        F397   1.357       .  S
C392        C393   1.415       .  A
C393        C394   1.402       .  A
C393        F396   1.358       .  S
C394        F398   1.358       .  S
C401        C402   1.407       .  A
C401        C406   1.402       .  A
C401        F419   1.357       .  S
C402        C403   1.404       .  A
C402        C407   1.476       .  S
C403        C404   1.392       .  A
C403        F408   1.358       .  S
C404        C405   1.402       .  A
C404       F1220   1.358   1_545  S
C405        C406   1.403       .  A
C406        F409   1.358       .  S
C407        C410   1.401       .  A
C407        C414   1.402       .  A
C410        C411   1.398       .  A
C410        F415   1.358       .  S
C411        C412   1.415       .  A
C411        F417   1.358       .  S
C412        C413   1.414       .  A
C413        C414   1.399       .  A
C413        F416   1.357       .  S
C414        F418   1.358       .  S
F420       C1204   1.359       .  S
C421        C422   1.402       .  A
C421        C426   1.397       .  A
C421        F439   1.359       .  S
C422        C423   1.401       .  A
C422        C427   1.476       .  S
C423        C424   1.401       .  A
C423        F428   1.358       .  S
C424        C425   1.415       .  A
C424        F440   1.357   1_554  S
C425        C426   1.414       .  A
C426        F429   1.358       .  S
C427        C430   1.403       .  A
C427        C434   1.406       .  A
C430        C431   1.395       .  A
C430        F435   1.358       .  S
C431        C432   1.404       .  A
C431        F437   1.358       .  S
C432        C433   1.403       .  A
C433        C434   1.402       .  A
C433        F436   1.358       .  S
C434        F438   1.358       .  S
C441        C442   1.405       .  A
C441        C446   1.400       .  A
C441        F459   1.358       .  S
C442        C443   1.404       .  A
C442        C447   1.484       .  S
C443        C444   1.401       .  A
C443        F448   1.358       .  S
C444        C445   1.412       .  A
C444        F460   1.358       .  S
C445        C446   1.410       .  A
C446        F449   1.358       .  S
C447        C450   1.408       .  A
C447        C454   1.406       .  A
C450        C451   1.401       .  A
C450        F455   1.358       .  S
C451        C452   1.404       .  A
C451        F457   1.357       .  S
C452        C453   1.404       .  A
C453        C454   1.397       .  A
C453        F456   1.357       .  S
C454        F458   1.358       .  S
C461        C462   1.407       .  A
C461        C466   1.397       .  A
C461        F479   1.358       .  S
C462        C463   1.406       .  A
C462        C467   1.483       .  S
C463        C464   1.399       .  A
C463        F468   1.358   1_545  S
C464        C465   1.406       .  A
C464        F480   1.358   1_545  S
C465        C466   1.406       .  A
C465       C1098   1.475       .  S
C466       F1269   1.358       .  S
C467        C470   1.406       .  A
C467        C474   1.404       .  A
F469       C1266   1.358       .  S
C470        C471   1.402       .  A
C470        F475   1.358       .  S
C471        C472   1.409       .  A
C471        F477   1.355       .  S
C472        C473   1.410       .  A
C473        C474   1.397       .  A
C473        F476   1.358       .  S
C474        F478   1.358       .  S
C481        C482   1.404       .  A
C481        C486   1.395       .  A
C481        F499   1.358       .  S
C482        C483   1.407       .  A
C482        C487   1.478       .  S
C483        C484   1.401       .  A
C483        F488   1.358       .  S
C484        C485   1.404       .  A
C484        F500   1.358       .  S
C485        C486   1.402       .  A
C486        F489   1.358       .  S
C487        C490   1.402       .  A
C487        C494   1.403       .  A
C490        C491   1.401       .  A
C490        F495   1.358       .  S
C491        C492   1.414       .  A
C491        F497   1.357       .  S
C492        C493   1.413       .  A
C493        C494   1.397       .  A
C493        F496   1.358       .  S
C494        F498   1.359       .  S
C501        C502   1.400       .  A
C501        C506   1.398       .  A
C501        F519   1.358       .  S
C502        C503   1.400       .  A
C502        C507   1.474       .  S
C503        C504   1.400       .  A
C503        F508   1.358       .  S
C504        C505   1.414       .  A
C504        F520   1.358       .  S
C505        C506   1.416       .  A
C506        F509   1.358       .  S
C507        C510   1.402       .  A
C507       C1314   1.403       .  A
C510        C511   1.399       .  A
C510        F515   1.358       .  S
C511        C512   1.405       .  A
C511        F517   1.356       .  S
C512       C1313   1.408       .  A
C513        C514   1.402       .  A
C513       C1312   1.405       .  A
C513        F516   1.357       .  S
C514       C1307   1.408       .  A
C514        F518   1.358       .  S
C521        C522   1.404       .  A
C521        C526   1.395       .  A
C521        F539   1.358       .  S
C522        C523   1.404       .  A
C522        C527   1.482       .  S
C523        C524   1.402       .  A
C523        F528   1.357       .  S
C524        C525   1.413       .  A
C524        F540   1.358       .  S
C525        C526   1.412       .  A
C526        F529   1.358       .  S
C527        C530   1.406       .  A
C527        C534   1.404       .  A
C530        C531   1.400       .  A
C530        F535   1.358       .  S
C531        C532   1.406       .  A
C531        F537   1.356       .  S
C532        C533   1.408       .  A
C533        C534   1.398       .  A
C533        F536   1.358       .  S
C534        F538   1.358       .  S
C541        C542   1.409       .  A
C541        C546   1.403       .  A
C541        F559   1.358       .  S
C542        C543   1.406       .  A
C542        C547   1.488       .  S
C543        C544   1.398       .  A
C543        F548   1.358       .  S
C544        C545   1.408       .  A
C544        F560   1.358       .  S
C545        C546   1.407       .  A
C546        F549   1.358       .  S
C547        C550   1.408       .  A
C547        C554   1.407       .  A
C550        C551   1.405       .  A
C550        F555   1.357       .  S
C551        C552   1.408       .  A
C551        F557   1.357       .  S
C552        C553   1.405       .  A
C553        C554   1.396       .  A
C553        F556   1.358       .  S
C554        F558   1.358       .  S
C561        C562   1.404       .  A
C561        C566   1.399       .  A
C561        F579   1.358       .  S
C562        C563   1.403       .  A
C562        C567   1.479       .  S
C563        C564   1.401       .  A
C563        F568   1.358       .  S
C564        C565   1.412       .  A
C564        F580   1.358       .  S
C565        C566   1.409       .  A
C566        F569   1.358       .  S
C567        C570   1.404       .  A
C567        C574   1.406       .  A
C570        C571   1.397       .  A
C570        F575   1.358       .  S
C571        C572   1.405       .  A
C571        F577   1.357       .  S
C572        C573   1.405       .  A
C573        C574   1.401       .  A
C573        F576   1.356       .  S
C574        F578   1.357       .  S
C581        C582   1.407       .  A
C581        C586   1.404       .  A
C581        F599   1.358       .  S
C582        C583   1.403       .  A
C582       C1387   1.482   1_545  S
C583        C584   1.390       .  A
C583        F588   1.358       .  S
C584        C585   1.412       .  A
C584        F600   1.358       .  S
C585        C586   1.412       .  A
C586        F589   1.358       .  S
C587        C590   1.407       .  A
C587        C594   1.405       .  A
C587       C1382   1.484       .  S
C590        C591   1.400       .  A
C590       F1395   1.358       .  S
C591        C592   1.408       .  A
C591        F597   1.357       .  S
C592        C593   1.406       .  A
C593        C594   1.399       .  A
C593        F596   1.358       .  S
C594        F598   1.358       .  S
F595       C1390   1.358   1_545  S
C601        C602   1.405       .  A
C601        C606   1.394       .  A
C601        F619   1.358       .  S
C602        C603   1.408       .  A
C602        C607   1.482       .  S
C603        C604   1.404       .  A
C603        F608   1.357       .  S
C604        C605   1.406       .  A
C604        F620   1.357       .  S
C605        C606   1.404       .  A
C606        F609   1.359       .  S
C607        C610   1.404       .  A
C607        C614   1.406       .  A
C610        C611   1.398       .  A
C610        F615   1.358       .  S
C611        C612   1.409       .  A
C611        F617   1.358       .  S
C612        C613   1.409       .  A
C613        C614   1.402       .  A
C613        F616   1.358       .  S
C614        F618   1.358       .  S
C621        C622   1.404       .  A
C621        C626   1.396       .  A
C621        F639   1.358       .  S
C622        C623   1.405       .  A
C622        C627   1.476       .  S
C623        C624   1.400       .  A
C623        F628   1.358       .  S
C624        C625   1.405       .  A
C624        F640   1.358       .  S
C625        C626   1.402       .  A
C626        F629   1.358       .  S
C627        C630   1.402       .  A
C627        C634   1.403       .  A
C630        C631   1.401       .  A
C630        F635   1.358       .  S
C631        C632   1.412       .  A
C631        F637   1.358       .  S
C632        C633   1.410       .  A
C632        C931   1.483   1_545  S
C633        C634   1.395       .  A
C633       F1436   1.358   1_455  S
C634        F638   1.359       .  S
F636       C1433   1.358   1_655  S
C641        C642   1.408       .  A
C641        C646   1.397       .  A
C641        F659   1.358       .  S
C642        C643   1.410       .  A
C642        C647   1.490       .  S
C643        C644   1.404       .  A
C643        F648   1.358       .  S
C644        C645   1.404       .  A
C644        F660   1.357       .  S
C645        C646   1.403       .  A
C646        F649   1.357       .  S
C647        C650   1.408       .  A
C647        C654   1.407       .  A
C650        C651   1.402       .  A
C650        F655   1.358       .  S
C651        C652   1.411       .  A
C651        F657   1.358       .  S
C652        C653   1.410       .  A
C653        C654   1.398       .  A
C653        F656   1.358       .  S
C654        F658   1.358       .  S
C661        C662   1.404       .  A
C661        C666   1.399       .  A
C661        F679   1.359       .  S
C662        C663   1.401       .  A
C662        C667   1.476       .  S
C663        C664   1.401       .  A
C663        F668   1.358       .  S
C664        C665   1.412       .  A
C664        F680   1.357       .  S
C665        C666   1.411       .  A
C666        F669   1.358       .  S
C667        C670   1.406       .  A
C667        C674   1.402       .  A
C670        C671   1.403       .  A
C670        F675   1.358       .  S
C671        C672   1.407       .  A
C671        F677   1.358       .  S
C672        C673   1.404       .  A
C673        C674   1.394       .  A
C673        F676   1.358       .  S
C674        F678   1.358       .  S
C681        C682   1.402       .  A
C681        C686   1.394       .  A
C681        F699   1.358       .  S
C682        C683   1.404       .  A
C682       C1487   1.482   1_545  S
C683        C684   1.406       .  A
C683        F688   1.358       .  S
C684        C685   1.415       .  A
C684        F700   1.358       .  S
C685        C686   1.413       .  A
C686        F689   1.358       .  S
C687        C690   1.405       .  A
C687       C1494   1.404       .  A
C687       C1482   1.481       .  S
C690        C691   1.401       .  A
C690        F695   1.358       .  S
C691        C692   1.407       .  A
C691        F697   1.358       .  S
C692        C693   1.407       .  A
C693       C1494   1.399       .  A
C693        F696   1.357       .  S
C694       C1487   1.406   1_545  A
C694       C1493   1.400   1_545  A
C694        F698   1.358       .  S
C701        C702   1.403       .  A
C701        C706   1.399       .  A
C701        F719   1.358       .  S
C702        C703   1.406       .  A
C702        C707   1.485       .  S
C703        C704   1.401       .  A
C703        F708   1.358       .  S
C704        C705   1.412       .  A
C704        F720   1.357       .  S
C705        C706   1.416       .  A
C706        F709   1.357       .  S
C707        C710   1.408       .  A
C707        C714   1.409       .  A
C710        C711   1.396       .  A
C710        F715   1.358       .  S
C711        C712   1.402       .  A
C711        F717   1.358   1_545  S
C712        C713   1.403       .  A
C713        C714   1.401       .  A
C713        F716   1.358       .  S
C714        F718   1.357       .  S
C721        C722   1.405       .  A
C721        C726   1.401       .  A
C721        F739   1.358       .  S
C722        C723   1.404       .  A
C722        C727   1.486       .  S
C723        C724   1.400       .  A
C723        F728   1.358       .  S
C724        C725   1.413       .  A
C724        F740   1.358       .  S
C725        C726   1.413       .  A
C726        F729   1.358       .  S
C727        C730   1.405       .  A
C727        C734   1.409       .  A
C730        C731   1.395       .  A
C730        F735   1.358       .  S
C731        C732   1.405       .  A
C731        F737   1.358       .  S
C732        C733   1.406       .  A
C733        C734   1.406       .  A
C733        F736   1.357       .  S
C734        F738   1.358       .  S
C741        C742   1.404       .  A
C741        C746   1.399       .  A
C741        F759   1.358       .  S
C742        C743   1.406       .  A
C742        C747   1.486       .  S
C743        C744   1.404       .  A
C743        F748   1.358       .  S
C744        C745   1.414       .  A
C744        F760   1.358       .  S
C745        C746   1.412       .  A
C746        F749   1.358       .  S
C747        C750   1.408       .  A
C747        C754   1.407       .  A
C750        C751   1.401       .  A
C750        F755   1.358       .  S
C751        C752   1.403       .  A
C751        F757   1.354       .  S
C752        C753   1.405       .  A
C753        C754   1.401       .  A
C753        F756   1.357       .  S
C754        F758   1.358       .  S
C761        C762   1.407       .  A
C761        C766   1.394       .  A
C761        F779   1.358       .  S
C762        C763   1.406       .  A
C762        C767   1.484       .  S
C763        C764   1.404       .  A
C763        F768   1.358       .  S
C764        C765   1.411       .  A
C764        F780   1.358       .  S
C765        C766   1.405       .  A
C766        F769   1.358       .  S
C767        C770   1.406       .  A
C767        C774   1.407       .  A
C770        C771   1.397       .  A
C770        F775   1.358       .  S
C771        C772   1.404       .  A
C771        F777   1.357       .  S
C772        C773   1.405       .  A
C773        C774   1.402       .  A
C773        F776   1.358       .  S
C774        F778   1.358       .  S
C781        C782   1.409       .  A
C781        C786   1.403       .  A
C781        F799   1.358       .  S
C782        C783   1.405       .  A
C782        C787   1.486       .  S
C783        C784   1.398       .  A
C783        F788   1.358       .  S
C784        C785   1.405       .  A
C784        F800   1.358       .  S
C785        C786   1.405       .  A
C786        F789   1.358       .  S
C787        C790   1.409       .  A
C787        C794   1.408       .  A
C790        C791   1.402       .  A
C790        F795   1.357       .  S
C791        C792   1.403       .  A
C791        F797   1.358       .  S
C792        C793   1.402       .  A
C793        C794   1.398       .  A
C793        F796   1.358       .  S
C794        F798   1.358       .  S
N801        C805   1.354       .  A
N801        C802   1.355       .  A
N801       C1552   1.437       .  S
C802        C803   1.383       .  A
C802       C1585   1.475       .  S
C803        C804   1.372       .  A
C803        H806   1.082       .  S
C804        C805   1.380       .  A
C804        H807   1.082       .  S
C805       C1572   1.471       .  S
Zr808       O809   2.440       .  S
Zr808       O810   2.425       .  S
Zr808       O811   2.434       .  S
Zr808       O814   2.443       .  S
Zr808       O816   2.380       .  S
Zr808       O817   2.384       .  S
Zr808       O818   2.406       .  S
Zr808       O819   2.396       .  S
O809        H865   0.990       .  S
O809        H873   0.990       .  S
O810        C830   1.283       .  A
O811        C832   1.284       .  A
O812       Zr822   2.430       .  S
O812        C831   1.285       .  A
O813       Zr821   2.430       .  S
O813        C832   1.284       .  A
O814        C831   1.286       .  A
O815       Zr823   2.447       .  S
O815        C830   1.286       .  A
O816       Zr821   2.396       .  S
O816       Zr823   2.375       .  S
O817       Zr822   2.389       .  S
O817       Zr823   2.380       .  S
O817        H852   0.968       .  S
O818       Zr821   2.401       .  S
O818       Zr838   2.398       .  S
O818        H855   0.966       .  S
O819       Zr822   2.388       .  S
O819       Zr838   2.396       .  S
Zr820       O845   2.441       .  S
Zr820       O839   2.431       .  S
Zr820       O847   2.433       .  S
Zr820       O835   2.439       .  S
Zr820       O826   2.404       .  S
Zr820       O827   2.407       .  S
Zr820       O828   2.375       .  S
Zr820       O829   2.380       .  S
Zr821       O840   2.437       .  S
Zr821       O833   2.435       .  S
Zr821       O834   2.439       .  S
Zr821       O827   2.396       .  S
Zr821       O828   2.387       .  S
Zr822       O824   2.435       .  S
Zr822       O846   2.437       .  S
Zr822       O848   2.424       .  S
Zr822       O826   2.389       .  S
Zr822       O829   2.387       .  S
Zr823       O849   2.436       .  S
Zr823       O850   2.436       .  S
Zr823       O825   2.436       .  S
Zr823       O826   2.401       .  S
Zr823       O827   2.405       .  S
O824        H861   0.990       .  S
O825        H856   0.990       .  S
O825        H870   0.990       .  S
O827        H853   0.966       .  S
O828       Zr838   2.372       .  S
O829       Zr838   2.374       .  S
O829        H854   0.966       .  S
C830       C1452   1.497       .  S
C831       C1485   1.494       .  S
C832       C1505   1.491       .  S
O833        H869   0.990       .  S
O834        C836   1.287       .  A
O835        C836   1.286       .  A
C836       C1465   1.494       .  S
O837       Zr838   2.439       .  S
O837        H866   0.990       .  S
Zr838       O841   2.437       .  S
Zr838       O842   2.439       .  S
Zr838       O843   2.435       .  S
O839        C844   1.284       .  A
O840        H857   0.990       .  S
O840        H872   0.990       .  S
O841        H858   0.990       .  S
O842        H862   0.990       .  S
O842        H871   0.990       .  S
O843        C844   1.285       .  A
C844       C1545   1.490       .  S
O845        H864   0.990       .  S
O845        H868   0.990       .  S
O846        H860   0.990       .  S
O846        H867   0.990       .  S
O847        C851   1.285       .  A
O848        C851   1.283       .  A
O849        H859   0.990       .  S
O850        H863   0.990       .  S
C851       C1525   1.488       .  S
N874        C878   1.356       .  A
N874        C875   1.355       .  A
N874       C1445   1.441       .  S
C875        C876   1.383       .  A
C875       C1425   1.475       .  S
C876        C877   1.374       .  A
C876        H879   1.083       .  S
C877        C878   1.383       .  A
C877        H880   1.082       .  S
C878       C1405   1.476       .  S
N881        C885   1.358       .  A
N881        C882   1.360       .  A
N881       C1372   1.446       .  S
C882        C883   1.383       .  A
C882       C1532   1.477       .  S
C883        C884   1.373       .  A
C883        H886   1.083       .  S
C884        C885   1.382       .  A
C884        H887   1.082       .  S
C885       C1392   1.479       .  S
Zr888       O889   2.439       .  S
Zr888       O890   2.433       .  S
Zr888       O891   2.430       .  S
Zr888       O894   2.443       .  S
Zr888       O896   2.382       .  S
Zr888       O897   2.380       .  S
Zr888       O898   2.409       .  S
Zr888       O899   2.400       .  S
O889        H945   0.990       .  S
O889        H953   0.990       .  S
O890        C910   1.284       .  A
O891        C912   1.283       .  A
O892       Zr902   2.415       .  S
O892        C911   1.282       .  A
O893       Zr901   2.430       .  S
O893        C912   1.284       .  A
O894        C911   1.287       .  A
O895       Zr903   2.447       .  S
O895        C910   1.286       .  A
O896       Zr901   2.392       .  S
O896       Zr903   2.372       .  S
O897       Zr902   2.386       .  S
O897       Zr903   2.369       .  S
O897        H932   0.965       .  S
O898       Zr901   2.402       .  S
O898       Zr918   2.399   1_655  S
O898        H935   0.966       .  S
O899       Zr902   2.395       .  S
O899       Zr918   2.398   1_655  S
Zr900       O919   2.443       .  S
Zr900       O906   2.403   1_455  S
Zr900       O907   2.410   1_455  S
Zr900       O908   2.378       .  S
Zr900       O909   2.374       .  S
Zr901       O920   2.437   1_655  S
Zr901       O913   2.437       .  S
Zr901       O907   2.391       .  S
Zr901       O908   2.384   1_655  S
Zr902       O904   2.434   1_655  S
Zr902       O926   2.437       .  S
Zr902       O928   2.429   1_655  S
Zr902       O906   2.383       .  S
Zr902       O909   2.383   1_655  S
Zr903       O929   2.436   1_565  S
Zr903       O906   2.404       .  S
Zr903       O907   2.404       .  S
O904        H941   0.990   1_455  S
O905        H936   0.991       .  S
O908       Zr918   2.370       .  S
O909       Zr918   2.375       .  S
O909        H934   0.966       .  S
C910       C1365   1.498       .  S
C911       C1345   1.481       .  S
C912       C1592   1.467       .  S
O913        H949   0.990   1_565  S
O914        C916   1.287       .  A
O915        C916   1.286       .  A
C916       C1325   1.500       .  S
O917       Zr918   2.438       .  S
O917        H946   0.990       .  S
Zr918       O921   2.437       .  S
Zr918       O922   2.439       .  S
Zr918       O923   2.425       .  S
O919        C924   1.287       .  A
O920        H937   0.990       .  S
O920        H952   0.990       .  S
O921        H938   0.990       .  S
O922        H942   0.990       .  S
O922        H951   0.990       .  S
O923        C924   1.283       .  A
C924       C1305   1.492       .  S
O925        H944   0.990       .  S
O925        H948   0.990       .  S
O926        H940   0.990       .  S
O926        H947   0.990       .  S
O928        C931   1.285       .  A
O929        H939   0.990       .  S
O930        H943   0.990       .  S
N954        C958   1.357       .  A
N954       C1312   1.442       .  S
C955        C956   1.381       .  A
C955       C1512   1.472       .  S
C956        H959   1.082       .  S
C957        C958   1.383       .  A
C957        H960   1.082       .  S
C958       C1285   1.475       .  S
N961        C965   1.358       .  A
N961        C962   1.360       .  A
N961       C1252   1.441       .  S
C962        C963   1.384       .  A
C962       C1272   1.483       .  S
C963        C964   1.373       .  A
C963        H966   1.083       .  S
C964        C965   1.381       .  A
C964        H967   1.082       .  S
C965       C1352   1.480       .  S
Zr968       O969   2.437       .  S
Zr968       O970   2.418   1_556  S
Zr968       O971   2.442       .  S
Zr968       O974   2.435   1_556  S
Zr968       O976   2.377       .  S
Zr968       O977   2.382   1_556  S
Zr968       O978   2.404       .  S
Zr968       O979   2.398       .  S
O969       H1025   0.990       .  S
O969       H1033   0.990       .  S
O970        C990   1.282       .  A
O971        C992   1.287       .  A
O972       Zr982   2.423       .  S
O972        C991   1.284       .  A
O973       Zr981   2.423       .  S
O973        C992   1.283       .  A
O974        C991   1.286       .  A
O975       Zr983   2.448       .  S
O975        C990   1.287       .  A
O976       Zr981   2.385       .  S
O976       Zr983   2.372   1_556  S
O977       Zr982   2.382       .  S
O977       Zr983   2.372       .  S
O977       H1012   0.967       .  S
O978       Zr981   2.397       .  S
O978       Zr998   2.401       .  S
O978       H1015   0.966       .  S
O979       Zr982   2.391   1_556  S
O979       Zr998   2.394       .  S
Zr980      O1005   2.439       .  S
Zr980       O999   2.436       .  S
Zr980      O1007   2.433       .  S
Zr980       O995   2.434       .  S
Zr980       O986   2.404   1_556  S
Zr980       O987   2.405       .  S
Zr980       O988   2.373       .  S
Zr980       O989   2.376       .  S
Zr981      O1000   2.437       .  S
Zr981       O993   2.435       .  S
Zr981       O994   2.420       .  S
Zr981       O987   2.391       .  S
Zr981       O988   2.382       .  S
Zr982       O984   2.434       .  S
Zr982      O1006   2.435       .  S
Zr982      O1008   2.433       .  S
Zr982       O986   2.388       .  S
Zr982       O989   2.382   1_554  S
Zr983      O1009   2.436       .  S
Zr983      O1010   2.436       .  S
Zr983       O985   2.437   1_554  S
Zr983       O986   2.405       .  S
Zr983       O987   2.403   1_554  S
O984       H1021   0.990       .  S
O985       H1016   0.990   1_556  S
O985       H1030   0.990       .  S
O987       H1013   0.965       .  S
O988       Zr998   2.370       .  S
O989       Zr998   2.371       .  S
O989       H1014   0.966       .  S
C990       C1245   1.486       .  S
C991       C1385   1.492       .  S
C992       C1212   1.493       .  S
O993       H1029   0.990       .  S
O994        C996   1.283       .  A
O995        C996   1.286       .  A
C996       C1292   1.489       .  S
O997       Zr998   2.438       .  S
O997       H1026   0.990       .  S
Zr998      O1001   2.437       .  S
Zr998      O1002   2.440       .  S
Zr998      O1003   2.427       .  S
O999       C1004   1.286       .  A
O1000      H1017   0.990       .  S
O1000      H1032   0.990       .  S
O1001      H1018   0.990       .  S
O1002      H1022   0.990       .  S
O1002      H1031   0.990       .  S
O1003      C1004   1.284       .  A
C1004      C1192   1.490       .  S
O1005      H1024   0.990       .  S
O1005      H1028   0.990       .  S
O1006      H1020   0.990       .  S
O1006      H1027   0.990       .  S
O1007      C1011   1.286   1_556  A
O1008      C1011   1.285       .  A
O1009      H1019   0.990       .  S
O1010      H1023   0.990       .  S
C1011      C1225   1.495       .  S
N1034      C1038   1.362       .  A
N1034      C1035   1.361       .  A
N1034      C1185   1.442       .  S
C1035      C1036   1.381       .  A
C1035      C1165   1.483       .  S
C1036      C1037   1.373       .  A
C1036      H1039   1.082       .  S
C1037      C1038   1.383       .  A
C1037      H1040   1.082       .  S
C1038      C1332   1.489       .  S
N1041      C1045   1.355       .  A
N1041      C1145   1.439       .  S
C1042      C1043   1.381       .  A
C1042      C1205   1.470       .  S
C1043      H1046   1.082       .  S
C1044      C1045   1.383       .  A
C1044      H1047   1.082       .  S
C1045      C1472   1.473       .  S
N1048      C1052   1.357       .  A
N1048      C1049   1.355       .  A
N1048      C1125   1.439       .  S
C1049      C1050   1.380       .  A
C1049      C1232   1.474       .  S
C1050      C1051   1.375       .  A
C1050      H1053   1.081       .  S
C1051      C1052   1.383       .  A
C1051      H1054   1.082       .  S
C1052      C1492   1.481       .  S
Zr1055     O1056   2.439       .  S
Zr1055     O1057   2.426   1_556  S
Zr1055     O1058   2.431       .  S
Zr1055     O1061   2.427   1_556  S
Zr1055     O1063   2.376       .  S
Zr1055     O1064   2.382   1_556  S
Zr1055     O1065   2.402   1_455  S
Zr1055     O1066   2.403   1_455  S
O1056      H1112   0.990       .  S
O1056      H1120   0.990       .  S
O1057      C1077   1.283       .  A
O1058      C1079   1.284       .  A
O1059     Zr1069   2.430       .  S
O1059      C1078   1.285       .  A
O1060     Zr1068   2.450       .  S
O1060      C1079   1.288       .  A
O1061      C1078   1.284       .  A
O1062     Zr1070   2.423       .  S
O1062      C1077   1.282       .  A
O1063     Zr1068   2.387       .  S
O1063     Zr1070   2.373   1_556  S
O1064     Zr1069   2.388       .  S
O1064     Zr1070   2.375       .  S
O1064      H1099   0.966       .  S
O1065     Zr1068   2.399   1_655  S
O1065     Zr1085   2.403       .  S
O1065      H1102   0.966       .  S
O1066     Zr1069   2.396   1_656  S
O1066     Zr1085   2.401       .  S
Zr1067     O1086   2.436       .  S
Zr1067     O1073   2.398   1_656  S
Zr1067     O1074   2.408   1_665  S
Zr1067     O1075   2.376       .  S
Zr1067     O1076   2.380       .  S
Zr1068     O1087   2.437   1_455  S
Zr1068     O1080   2.435       .  S
Zr1068     O1074   2.400   1_565  S
Zr1068     O1075   2.388   1_455  S
Zr1069     O1071   2.435   1_455  S
Zr1069     O1093   2.437       .  S
Zr1069     O1095   2.431   1_455  S
Zr1069     O1073   2.389       .  S
Zr1069     O1076   2.384   1_454  S
Zr1070     O1096   2.438       .  S
Zr1070     O1073   2.392       .  S
Zr1070     O1074   2.401   1_564  S
O1071      H1108   0.990       .  S
O1072      H1103   0.990   1_556  S
O1075     Zr1085   2.365       .  S
O1076     Zr1085   2.370       .  S
O1076      H1101   0.965       .  S
C1077      C1132   1.488       .  S
C1078      C1412   1.481       .  S
C1079      C1172   1.499       .  S
O1080      H1116   0.990       .  S
O1081      C1083   1.289       .  A
O1082      C1083   1.282       .  A
C1083      C1565   1.482       .  S
O1084     Zr1085   2.434       .  S
O1084      H1113   0.990       .  S
Zr1085     O1088   2.435       .  S
Zr1085     O1089   2.438       .  S
Zr1085     O1090   2.436       .  S
O1086      C1091   1.285       .  A
O1087      H1104   0.990       .  S
O1087      H1119   0.990       .  S
O1088      H1105   0.990       .  S
O1089      H1109   0.990       .  S
O1089      H1118   0.990       .  S
O1090      C1091   1.285       .  A
C1091      C1152   1.497       .  S
O1092      H1111   0.990       .  S
O1092      H1115   0.990       .  S
O1093      H1107   0.990       .  S
O1093      H1114   0.990       .  S
O1095      C1098   1.285   1_565  A
O1096      H1106   0.990       .  S
O1097      H1110   0.990       .  S
C1121      C1122   1.405       .  A
C1121      C1126   1.400       .  A
C1121      F1139   1.358       .  S
C1122      C1123   1.403       .  A
C1122      C1127   1.476       .  S
C1123      C1124   1.394       .  A
C1123      F1128   1.358       .  S
C1124      C1125   1.405       .  A
C1124      F1140   1.357       .  S
C1125      C1126   1.407       .  A
C1126      F1129   1.356       .  S
C1127      C1130   1.402       .  A
C1127      C1134   1.402       .  A
C1130      C1131   1.398       .  A
C1130      F1135   1.358       .  S
C1131      C1132   1.412       .  A
C1131      F1137   1.358       .  S
C1132      C1133   1.414       .  A
C1133      C1134   1.397       .  A
C1133      F1136   1.358       .  S
C1134      F1138   1.358       .  S
C1141      C1142   1.411       .  A
C1141      C1146   1.405       .  A
C1141      F1159   1.358       .  S
C1142      C1143   1.406   1_565  A
C1142      C1147   1.489       .  S
C1143      C1144   1.398       .  A
C1143      F1148   1.357       .  S
C1144      C1145   1.402   1_545  A
C1145      C1146   1.404       .  A
C1146      F1149   1.357       .  S
C1147      C1150   1.403       .  A
C1150      C1151   1.398       .  A
C1150      F1155   1.358       .  S
C1151      C1152   1.414       .  A
C1151      F1157   1.358       .  S
C1153      C1154   1.403       .  A
C1153      F1156   1.357       .  S
C1154      F1158   1.357       .  S
C1161      C1162   1.404       .  A
C1161      C1166   1.397       .  A
C1161      F1179   1.358       .  S
C1162      C1163   1.410       .  A
C1162      C1167   1.488       .  S
C1163      C1164   1.408       .  A
C1163      F1168   1.358       .  S
C1164      C1165   1.406       .  A
C1164      F1180   1.358       .  S
C1165      C1166   1.405       .  A
C1166      F1169   1.358       .  S
C1167      C1170   1.405       .  A
C1167      C1174   1.405       .  A
C1170      C1171   1.403       .  A
C1170      F1175   1.358       .  S
C1171      C1172   1.416       .  A
C1171      F1177   1.358       .  S
C1172      C1173   1.412       .  A
C1173      C1174   1.403       .  A
C1173      F1176   1.357       .  S
C1174      F1178   1.358       .  S
C1181      C1182   1.405       .  A
C1181      C1186   1.398       .  A
C1181      F1199   1.358       .  S
C1182      C1183   1.407       .  A
C1182      C1187   1.484       .  S
C1183      C1184   1.402       .  A
C1183      F1188   1.358       .  S
C1184      C1185   1.407       .  A
C1184      F1200   1.356       .  S
C1185      C1186   1.406       .  A
C1186      F1189   1.357       .  S
C1187      C1190   1.406       .  A
C1187      C1194   1.403       .  A
C1190      C1191   1.400       .  A
C1190      F1195   1.358       .  S
C1191      C1192   1.411       .  A
C1191      F1197   1.358       .  S
C1192      C1193   1.413       .  A
C1193      C1194   1.399       .  A
C1193      F1196   1.358       .  S
C1194      F1198   1.358       .  S
C1201      C1202   1.408       .  A
C1201      C1206   1.402       .  A
C1201      F1219   1.358       .  S
C1202      C1203   1.406       .  A
C1202      C1207   1.482       .  S
C1203      C1204   1.396       .  A
C1203      F1208   1.358       .  S
C1204      C1205   1.403       .  A
C1205      C1206   1.403       .  A
C1206      F1209   1.358       .  S
C1207      C1210   1.404       .  A
C1207      C1214   1.404       .  A
C1210      C1211   1.398       .  A
C1210      F1215   1.358       .  S
C1211      C1212   1.414       .  A
C1211      F1217   1.358       .  S
C1212      C1213   1.413       .  A
C1213      C1214   1.400       .  A
C1213      F1216   1.357       .  S
C1214      F1218   1.358       .  S
C1221      C1222   1.404       .  A
C1221      C1226   1.399       .  A
C1221      F1239   1.358       .  S
C1222      C1223   1.402       .  A
C1222      C1227   1.482       .  S
C1223      C1224   1.400       .  A
C1223      F1228   1.358       .  S
C1224      C1225   1.415       .  A
C1224      F1240   1.358   1_554  S
C1225      C1226   1.415       .  A
C1226      F1229   1.358       .  S
C1227      C1230   1.405       .  A
C1227      C1234   1.408       .  A
C1230      C1231   1.395       .  A
C1230      F1235   1.358       .  S
C1231      C1232   1.403       .  A
C1231      F1237   1.358       .  S
C1232      C1233   1.404       .  A
C1233      C1234   1.404       .  A
C1233      F1236   1.357       .  S
C1234      F1238   1.357       .  S
C1241      C1242   1.406       .  A
C1241      C1246   1.399       .  A
C1241      F1259   1.358       .  S
C1242      C1243   1.404       .  A
C1242      C1247   1.484       .  S
C1243      C1244   1.401       .  A
C1243      F1248   1.358       .  S
C1244      C1245   1.412       .  A
C1244      F1260   1.357       .  S
C1245      C1246   1.407       .  A
C1246      F1249   1.358       .  S
C1247      C1250   1.407       .  A
C1247      C1254   1.406       .  A
C1250      C1251   1.402       .  A
C1250      F1255   1.358       .  S
C1251      C1252   1.406       .  A
C1251      F1257   1.357       .  S
C1252      C1253   1.404       .  A
C1253      C1254   1.398       .  A
C1253      F1256   1.357       .  S
C1254      F1258   1.358       .  S
C1261      C1262   1.410       .  A
C1261      C1266   1.400       .  A
C1261      F1279   1.358       .  S
C1262      C1263   1.409       .  A
C1262      C1267   1.492       .  S
C1263      C1264   1.401       .  A
C1263      F1268   1.357       .  S
C1264      C1265   1.404       .  A
C1264      F1280   1.358       .  S
C1265      C1266   1.405       .  A
C1267      C1270   1.410       .  A
C1267      C1274   1.408       .  A
C1270      C1271   1.402       .  A
C1270      F1275   1.358       .  S
C1271      C1272   1.406       .  A
C1271      F1277   1.357       .  S
C1272      C1273   1.406       .  A
C1273      C1274   1.398       .  A
C1273      F1276   1.358       .  S
C1274      F1278   1.358       .  S
C1281      C1282   1.405       .  A
C1281      C1286   1.397       .  A
C1281      F1299   1.358       .  S
C1282      C1283   1.406       .  A
C1282      C1287   1.479       .  S
C1283      C1284   1.401       .  A
C1283      F1288   1.358       .  S
C1284      C1285   1.404       .  A
C1284      F1300   1.358       .  S
C1285      C1286   1.404       .  A
C1286      F1289   1.358       .  S
C1287      C1290   1.403       .  A
C1287      C1294   1.403       .  A
C1290      C1291   1.401       .  A
C1290      F1295   1.357       .  S
C1291      C1292   1.412       .  A
C1291      F1297   1.357       .  S
C1292      C1293   1.413       .  A
C1293      C1294   1.395       .  A
C1293      F1296   1.358       .  S
C1294      F1298   1.358       .  S
C1301      C1302   1.405       .  A
C1301      C1306   1.400       .  A
C1301      F1319   1.358       .  S
C1302      C1303   1.406       .  A
C1302      C1307   1.488       .  S
C1303      C1304   1.402       .  A
C1303      F1308   1.357   1_565  S
C1304      C1305   1.411       .  A
C1304      F1320   1.357   1_565  S
C1305      C1306   1.413       .  A
C1306      F1309   1.358       .  S
C1307      C1310   1.407       .  A
C1310      C1311   1.399       .  A
C1310      F1315   1.358       .  S
C1311      C1312   1.405       .  A
C1311      F1317   1.357       .  S
C1313      C1314   1.400       .  A
C1313      F1316   1.357       .  S
C1314      F1318   1.358       .  S
C1321      C1322   1.405       .  A
C1321      C1326   1.397       .  A
C1321      F1339   1.358       .  S
C1322      C1323   1.407       .  A
C1322      C1327   1.493       .  S
C1323      C1324   1.407       .  A
C1323      F1328   1.358       .  S
C1324      C1325   1.415       .  A
C1324      F1340   1.358       .  S
C1325      C1326   1.413       .  A
C1326      F1329   1.358       .  S
C1327      C1330   1.409       .  A
C1327      C1334   1.407       .  A
C1330      C1331   1.403       .  A
C1330      F1335   1.358       .  S
C1331      C1332   1.406       .  A
C1331      F1337   1.357       .  S
C1332      C1333   1.408       .  A
C1333      C1334   1.402       .  A
C1333      F1336   1.358       .  S
C1334      F1338   1.358       .  S
C1341      C1342   1.408       .  A
C1341      C1346   1.401       .  A
C1341      F1359   1.358       .  S
C1342      C1343   1.405       .  A
C1342      C1347   1.486       .  S
C1343      C1344   1.398       .  A
C1343      F1348   1.358       .  S
C1344      C1345   1.409       .  A
C1344      F1360   1.358       .  S
C1345      C1346   1.407       .  A
C1346      F1349   1.358       .  S
C1347      C1350   1.408       .  A
C1347      C1354   1.407       .  A
C1350      C1351   1.403       .  A
C1350      F1355   1.357       .  S
C1351      C1352   1.405       .  A
C1351      F1357   1.357       .  S
C1352      C1353   1.404       .  A
C1353      C1354   1.395       .  A
C1353      F1356   1.358       .  S
C1354      F1358   1.358       .  S
C1361      C1362   1.406       .  A
C1361      C1366   1.405       .  A
C1361      F1379   1.358       .  S
C1362      C1363   1.405       .  A
C1362      C1367   1.490       .  S
C1363      C1364   1.401       .  A
C1363      F1368   1.358       .  S
C1364      C1365   1.414       .  A
C1364      F1380   1.358       .  S
C1365      C1366   1.413       .  A
C1366      F1369   1.358       .  S
C1367      C1370   1.405       .  A
C1367      C1374   1.409       .  A
C1370      C1371   1.398       .  A
C1370      F1375   1.358       .  S
C1371      C1372   1.407       .  A
C1371      F1377   1.357       .  S
C1372      C1373   1.407       .  A
C1373      C1374   1.406       .  A
C1373      F1376   1.356       .  S
C1374      F1378   1.357       .  S
C1381      C1382   1.405       .  A
C1381      C1386   1.402       .  A
C1381      F1399   1.358       .  S
C1382      C1383   1.404       .  A
C1383      C1384   1.395       .  A
C1383      F1388   1.358       .  S
C1384      C1385   1.413       .  A
C1384      F1400   1.358       .  S
C1385      C1386   1.414       .  A
C1386      F1389   1.358       .  S
C1387      C1390   1.407       .  A
C1387      C1394   1.406       .  A
C1390      C1391   1.398       .  A
C1391      C1392   1.405       .  A
C1391      F1397   1.358       .  S
C1392      C1393   1.405       .  A
C1393      C1394   1.399       .  A
C1393      F1396   1.358       .  S
C1394      F1398   1.358       .  S
C1401      C1402   1.405       .  A
C1401      C1406   1.392       .  A
C1401      F1419   1.359       .  S
C1402      C1403   1.408       .  A
C1402      C1407   1.480       .  S
C1403      C1404   1.403       .  A
C1403      F1408   1.358       .  S
C1404      C1405   1.405       .  A
C1404      F1420   1.357       .  S
C1405      C1406   1.404       .  A
C1406      F1409   1.358       .  S
C1407      C1410   1.405       .  A
C1407      C1414   1.405       .  A
C1410      C1411   1.396       .  A
C1410      F1415   1.358       .  S
C1411      C1412   1.408       .  A
C1411      F1417   1.358       .  S
C1412      C1413   1.410       .  A
C1413      C1414   1.399       .  A
C1413      F1416   1.358       .  S
C1414      F1418   1.358       .  S
C1421      C1422   1.406       .  A
C1421      C1426   1.397       .  A
C1421      F1439   1.358       .  S
C1422      C1423   1.407       .  A
C1422      C1427   1.484       .  S
C1423      C1424   1.401       .  A
C1423      F1428   1.358       .  S
C1424      C1425   1.405       .  A
C1424      F1440   1.358       .  S
C1425      C1426   1.403       .  A
C1426      F1429   1.358       .  S
C1427      C1430   1.406       .  A
C1427      C1434   1.405       .  A
C1430      C1431   1.404       .  A
C1430      F1435   1.357       .  S
C1431      C1432   1.411       .  A
C1431      F1437   1.358       .  S
C1432      C1433   1.411       .  A
C1433      C1434   1.393       .  A
C1434      F1438   1.359       .  S
C1441      C1442   1.411       .  A
C1441      C1446   1.399       .  A
C1441      F1459   1.358       .  S
C1442      C1443   1.413       .  A
C1442      C1447   1.499       .  S
C1443      C1444   1.405       .  A
C1443      F1448   1.357       .  S
C1444      C1445   1.403       .  A
C1444      F1460   1.357       .  S
C1445      C1446   1.402       .  A
C1446      F1449   1.357       .  S
C1447      C1450   1.410       .  A
C1447      C1454   1.408       .  A
C1450      C1451   1.405       .  A
C1450      F1455   1.357       .  S
C1451      C1452   1.411       .  A
C1451      F1457   1.358       .  S
C1452      C1453   1.413       .  A
C1453      C1454   1.399       .  A
C1453      F1456   1.358       .  S
C1454      F1458   1.358       .  S
C1461      C1462   1.405       .  A
C1461      C1466   1.400       .  A
C1461      F1479   1.358       .  S
C1462      C1463   1.403       .  A
C1462      C1467   1.484       .  S
C1463      C1464   1.402       .  A
C1463      F1468   1.358       .  S
C1464      C1465   1.414       .  A
C1464      F1480   1.358       .  S
C1465      C1466   1.412       .  A
C1466      F1469   1.358       .  S
C1467      C1470   1.408       .  A
C1467      C1474   1.405       .  A
C1470      C1471   1.401       .  A
C1470      F1475   1.358       .  S
C1471      C1472   1.404       .  A
C1471      F1477   1.358       .  S
C1472      C1473   1.403       .  A
C1473      C1474   1.397       .  A
C1473      F1476   1.358       .  S
C1474      F1478   1.358       .  S
C1481      C1482   1.401       .  A
C1481      C1486   1.395       .  A
C1481      F1499   1.358       .  S
C1482      C1483   1.404       .  A
C1483      C1484   1.407       .  A
C1483      F1488   1.358       .  S
C1484      C1485   1.415       .  A
C1484      F1500   1.358       .  S
C1485      C1486   1.412       .  A
C1486      F1489   1.357       .  S
C1487      C1490   1.405       .  A
C1490      C1491   1.400       .  A
C1490      F1495   1.358       .  S
C1491      C1492   1.406       .  A
C1491      F1497   1.358       .  S
C1492      C1493   1.406       .  A
C1493      F1496   1.357       .  S
C1494      F1498   1.358       .  S
C1501      C1502   1.403       .  A
C1501      C1506   1.399       .  A
C1501      F1519   1.358       .  S
C1502      C1503   1.403       .  A
C1502      C1507   1.480       .  S
C1503      C1504   1.399       .  A
C1503      F1508   1.358       .  S
C1504      C1505   1.413       .  A
C1504      F1520   1.358       .  S
C1505      C1506   1.414       .  A
C1506      F1509   1.358       .  S
C1507      C1510   1.405       .  A
C1507      C1514   1.407       .  A
C1510      C1511   1.395       .  A
C1510      F1515   1.358       .  S
C1511      C1512   1.404       .  A
C1511      F1517   1.358       .  S
C1512      C1513   1.404       .  A
C1513      C1514   1.402       .  A
C1513      F1516   1.358       .  S
C1514      F1518   1.358       .  S
C1521      C1522   1.405       .  A
C1521      C1526   1.398       .  A
C1521      F1539   1.358       .  S
C1522      C1523   1.404       .  A
C1522      C1527   1.483       .  S
C1523      C1524   1.398       .  A
C1523      F1528   1.358       .  S
C1524      C1525   1.411       .  A
C1524      F1540   1.357       .  S
C1525      C1526   1.413       .  A
C1526      F1529   1.358       .  S
C1527      C1530   1.405       .  A
C1527      C1534   1.408       .  A
C1530      C1531   1.394       .  A
C1530      F1535   1.358       .  S
C1531      C1532   1.405       .  A
C1531      F1537   1.358       .  S
C1532      C1533   1.404       .  A
C1533      C1534   1.404       .  A
C1533      F1536   1.357       .  S
C1534      F1538   1.358       .  S
C1541      C1542   1.404       .  A
C1541      C1546   1.399       .  A
C1541      F1559   1.358       .  S
C1542      C1543   1.403       .  A
C1542      C1547   1.480       .  S
C1543      C1544   1.400       .  A
C1543      F1548   1.358       .  S
C1544      C1545   1.413       .  A
C1544      F1560   1.358       .  S
C1545      C1546   1.411       .  A
C1546      F1549   1.358       .  S
C1547      C1550   1.406       .  A
C1547      C1554   1.406       .  A
C1550      C1551   1.398       .  A
C1550      F1555   1.358       .  S
C1551      C1552   1.402       .  A
C1551      F1557   1.355       .  S
C1552      C1553   1.405       .  A
C1553      C1554   1.400       .  A
C1553      F1556   1.357       .  S
C1554      F1558   1.358       .  S
C1561      C1562   1.408       .  A
C1561      C1566   1.396       .  A
C1561      F1579   1.358       .  S
C1562      C1563   1.403       .  A
C1562      C1567   1.483       .  S
C1563      C1564   1.402       .  A
C1563      F1568   1.358       .  S
C1564      C1565   1.412       .  A
C1564      F1580   1.357       .  S
C1565      C1566   1.405       .  A
C1566      F1569   1.358       .  S
C1567      C1570   1.405       .  A
C1567      C1574   1.407       .  A
C1570      C1571   1.396       .  A
C1570      F1575   1.358       .  S
C1571      C1572   1.404       .  A
C1571      F1577   1.357       .  S
C1572      C1573   1.403       .  A
C1573      C1574   1.401       .  A
C1573      F1576   1.358       .  S
C1574      F1578   1.357       .  S
C1581      C1582   1.408       .  A
C1581      C1586   1.400       .  A
C1581      F1599   1.358       .  S
C1582      C1583   1.406       .  A
C1582      C1587   1.483       .  S
C1583      C1584   1.397       .  A
C1583      F1588   1.358       .  S
C1584      C1585   1.404       .  A
C1584      F1600   1.358       .  S
C1585      C1586   1.405       .  A
C1586      F1589   1.358       .  S
C1587      C1590   1.407       .  A
C1587      C1594   1.409       .  A
C1590      C1591   1.401       .  A
C1590      F1595   1.358       .  S
C1591      C1592   1.404       .  A
C1591      F1597   1.358       .  S
C1592      C1593   1.401       .  A
C1593      C1594   1.396       .  A
C1593      F1596   1.358       .  S
C1594      F1598   1.358       .  S
