geometry optimzed in LAMMPS
_audit_creation_date              2020-11-30 
_audit_creation_method            'lammps2cif' 
_symmetry_space_group_name_H-M    'P1' 
_symmetry_Int_Tables_number       1 
_symmetry_cell_setting            triclinic 
loop_ 
_symmetry_equiv_pos_as_xyz 
  x,y,z 
_cell_length_a                    50.60279068524512 
_cell_length_b                    50.343858969773265 
_cell_length_c                    40.24988937801385 
_cell_angle_alpha                 93.44590625490832 
_cell_angle_beta                  87.39468581103628 
_cell_angle_gamma                 121.35303594191421 
loop_ 
_atom_site_label 
_atom_site_type_symbol 
_atom_site_fract_x 
_atom_site_fract_y 
_atom_site_fract_z 
_atom_site_charge 
O1          O  0.44460227  0.41532611  0.33969966    -0.81330
O2          O  0.45290295  0.34880345  0.44406065    -0.81350
O3          O  0.36375965  0.33813936  0.41063350    -0.81360
O4          O  0.49584488  0.37544264  0.36764418    -0.81300
O5          O  0.40384257  0.35447517  0.44029313    -0.81420
O6          O  0.47399525  0.40197276  0.38560803    -0.81340
O7          O  0.47445172  0.32873066  0.41123956    -0.81330
O8          O  0.41015955  0.39237405  0.37999633    -0.81360
C9          C  0.42633759  0.41623772  0.36170354     1.08360
C10         C  0.47245211  0.34066780  0.43929435     1.08250
C11         C  0.37606433  0.34646802  0.43910385     1.08390
C12         C  0.49802233  0.40021502  0.38099378     1.08260
O13         O  0.46853394  0.37917947  0.31798698    -0.81330
O14         O  0.36778752  0.28967284  0.41145139    -0.81400
O15         O  0.36226446  0.34860090  0.34318538    -0.81340
O16         O  0.42743046  0.28644535  0.36436768    -0.81320
O17         O  0.41824540  0.28540580  0.41836536    -0.81370
O18         O  0.40509814  0.35592346  0.31776640    -0.81340
O19         O  0.45059169  0.32973212  0.31849390    -0.81300
O20         O  0.36819677  0.29931972  0.35852428    -0.81370
Co21       Co  0.43904210  0.37781569  0.35478179     1.51530
Co22       Co  0.41163656  0.32136561  0.42634363     1.51690
Co23       Co  0.39080547  0.34460920  0.36857537     1.51570
Co24       Co  0.45976950  0.33048991  0.36572995     1.51470
O25         O  0.42683256  0.34039060  0.38129960    -1.43260
C26         C  0.46600235  0.35478242  0.30390822     1.08290
C27         C  0.35631148  0.28101257  0.38233787     1.08380
C28         C  0.37784941  0.35240348  0.31640839     1.08320
C29         C  0.41954851  0.27218104  0.39101822     1.08290
O30         O  0.42100989  0.12307639  0.30062275    -0.81330
O31         O  0.44266081  0.05591483  0.37363469    -0.81350
O32         O  0.99225671  0.11260949  0.37297712    -0.81360
O33         O  0.37005007  0.04018883  0.34400332    -0.81300
O34         O  0.48425099  0.09039304  0.42155856    -0.81420
O35         O  0.41562457  0.07091651  0.32289413    -0.81340
O36         O  0.39548946  0.02569063  0.39169702    -0.81330
O37         O  0.46383304  0.13137559  0.32460476    -0.81360
C38         C  0.44917402  0.13063718  0.29878932     1.08360
C39         C  0.42013207  0.02875448  0.37847564     1.08250
C40         C  0.00165439  0.10287140  0.39645418     1.08390
C41         C  0.39007816  0.04575342  0.32107767     1.08260
O42         O  0.36826345  0.08808871  0.34016255    -0.81330
O43         O  0.45066960  0.11591581  0.44665100    -0.81400
O44         O  0.45648314  0.16815984  0.37887557    -0.81340
O45         O  0.38314079  0.06290778  0.44087129    -0.81320
O46         O  0.42313000  0.05729296  0.44169576    -0.81370
O47         O  0.40954815  0.14067090  0.36174805    -0.81340
O48         O  0.35839224  0.07821476  0.39278390    -0.81300
O49         O  0.48573960  0.15341318  0.41925044    -0.81370
Co50       Co  0.41453168  0.10690436  0.34350680     1.51530
Co51       Co  0.44803348  0.08847231  0.40825337     1.51690
Co52       Co  0.46803390  0.13593492  0.37503980     1.51570
Co53       Co  0.37943425  0.05486604  0.39229733     1.51470
O54         O  0.42044508  0.09718906  0.38745666    -1.43260
C55         C  0.35131607  0.08432730  0.36596236     1.08290
C56         C  0.47406855  0.14239429  0.44663030     1.08380
C57         C  0.43082967  0.16542584  0.37430885     1.08320
C58         C  0.39872975  0.05424461  0.45530601     1.08290
O59         O  0.02583500  0.39701198  0.11317526    -0.81330
O60         O  0.15598490  0.48070923  0.08402616    -0.81350
O61         O  0.08936907  0.47903497  0.16046243    -0.81360
O62         O  0.06491739  0.39612760  0.05191218    -0.81300
O63         O  0.11649014  0.49087294  0.11553853    -0.81420
O64         O  0.03899775  0.35698890  0.08387178    -0.81340
O65         O  0.11663347  0.45028814  0.05217496    -0.81330
O66         O  0.03770304  0.42544578  0.15835774    -0.81360
C67         C  0.01924973  0.41130013  0.13523841     1.08360
C68         C  0.14202116  0.47522999  0.05648231     1.08250
C69         C  0.10119238  0.49684650  0.13663174     1.08390
C70         C  0.04304221  0.36885214  0.05575853     1.08260
O71         O  0.08277136  0.36926656  0.13613574    -0.81330
O72         O  0.15913025  0.49261295  0.15841600    -0.81400
O73         O  0.06281023  0.39125657  0.18184275    -0.81340
O74         O  0.14883614  0.42541213  0.08127995    -0.81320
O75         O  0.14900892  0.43622571  0.13406829    -0.81370
O76         O  0.02356785  0.35417871  0.15297513    -0.81340
O77         O  0.09519191  0.36853659  0.08373541    -0.81300
O78         O  0.12262566  0.44914268  0.18085916    -0.81370
Co79       Co  0.05541678  0.38496517  0.12558487     1.51530
Co80       Co  0.13050064  0.46202587  0.12632595     1.51690
Co81       Co  0.07987773  0.43513769  0.16471174     1.51570
Co82       Co  0.10521926  0.41102362  0.07046116     1.51470
O83         O  0.09043865  0.42556568  0.11255453    -1.43260
C84         C  0.09139253  0.35787452  0.11248521     1.08290
C85         C  0.14536103  0.47735063  0.18440750     1.08380
C86         C  0.03446935  0.36794477  0.18095726     1.08320
C87         C  0.16080191  0.42951910  0.10933555     1.08290
O88         O  0.18821762  0.15725347  0.34292721    -0.81330
O89         O  0.13833242  0.02415085  0.37109539    -0.81350
O90         O  0.17172917  0.06234756  0.30695301    -0.81360
O91         O  0.12068342  0.08845336  0.41477301    -0.81300
O92         O  0.18883510  0.04003218  0.33766151    -0.81420
O93         O  0.13842158  0.11970890  0.37435060    -0.81340
O94         O  0.12162939  0.03622401  0.41570971    -0.81330
O95         O  0.17080742  0.11549169  0.31040909    -0.81360
C96         C  0.17799694  0.14339426  0.31463843     1.08360
C97         C  0.11733303  0.01648031  0.39271489     1.08250
C98         C  0.17746499  0.04121169  0.31063373     1.08390
C99         C  0.11643276  0.10298107  0.39334039     1.08260
O100        O  0.18276388  0.16313130  0.41643669    -0.81330
O101        O  0.22582456  0.08940798  0.38751492    -0.81400
O102        O  0.23274920  0.14869555  0.33726946    -0.81340
O103        O  0.18652577  0.06990518  0.43628464    -0.81320
O104        O  0.18508810  0.03018495  0.40807534    -0.81370
O105        O  0.22609523  0.14885432  0.39093425    -0.81340
O106        O  0.18573716  0.12515110  0.43608799    -0.81300
O107        O  0.23282758  0.09502548  0.33413855    -0.81370
Co108      Co  0.18122742  0.13212017  0.38400826     1.51530
Co109      Co  0.18142875  0.05817576  0.38084743     1.51690
Co110      Co  0.19984394  0.10424531  0.32505770     1.51570
Co111      Co  0.15550531  0.08099394  0.42051122     1.51470
O112        O  0.17323062  0.09031796  0.36836854    -1.43260
C113        C  0.18094985  0.14761048  0.44134998     1.08290
C114        C  0.24302254  0.09473218  0.36209342     1.08380
C115        C  0.24328779  0.16041164  0.36586272     1.08320
C116        C  0.18436477  0.04324827  0.43594663     1.08290
O117        O  0.03490391  0.11709341  0.15996770    -0.81330
O118        O  0.12237400  0.17032786  0.07106890    -0.81350
O119        O  0.03068614  0.17910433  0.09388618    -0.81360
O120        O  0.10641159  0.13049882  0.11582601    -0.81300
O121        O  0.06544144  0.17149120  0.06683561    -0.81420
O122        O  0.08927048  0.11832589  0.16674012    -0.81340
O123        O  0.16329692  0.17995046  0.09994967    -0.81330
O124        O  0.03871719  0.13155712  0.10886295    -0.81360
C125        C  0.02497203  0.11126313  0.13041730     1.08360
C126        C  0.14980452  0.17456009  0.07215344     1.08250
C127        C  0.04156474  0.17447229  0.06657890     1.08390
C128        C  0.09733274  0.11142250  0.13882639     1.08260
O129        O  0.11522851  0.17721919  0.20394553    -0.81330
O130        O  0.09930936  0.23367972  0.09584101    -0.81400
O131        O  0.02684288  0.16450547  0.16001480    -0.81340
O132        O  0.15641760  0.21957224  0.14543226    -0.81320
O133        O  0.15032698  0.23264839  0.09816079    -0.81370
O134        O  0.06178173  0.17691803  0.19695042    -0.81340
O135        O  0.14506156  0.16807347  0.17025600    -0.81300
O136        O  0.07201563  0.21983555  0.14048357    -0.81370
Co137      Co  0.07649657  0.14958103  0.17929656     1.51530
Co138      Co  0.10731865  0.19879906  0.08931603     1.51690
Co139      Co  0.05768127  0.17669221  0.12306632     1.51570
Co140      Co  0.13035205  0.17622160  0.12856513     1.51470
O141        O  0.09416026  0.17881453  0.13987665    -1.43260
C142        C  0.13842041  0.17417214  0.19954215     1.08290
C143        C  0.08733247  0.24059972  0.12018978     1.08380
C144        C  0.03450105  0.16851739  0.19001288     1.08320
C145        C  0.16494658  0.23994077  0.12466751     1.08290
O146        O  0.41099037  0.43693990  0.16357835    -0.81330
O147        O  0.35207483  0.45123572  0.06303450    -0.81350
O148        O  0.32866813  0.35863741  0.09497534    -0.81360
O149        O  0.38374746  0.49708338  0.13560700    -0.81300
O150        O  0.34846264  0.39884161  0.06552961    -0.81420
O151        O  0.40254329  0.46822614  0.11663826    -0.81340
O152        O  0.33785993  0.48010623  0.09109048    -0.81330
O153        O  0.38491955  0.40213115  0.12344753    -0.81360
C154        C  0.40920516  0.41707074  0.14164115     1.08360
C155        C  0.34997910  0.47477905  0.06522796     1.08250
C156        C  0.33851136  0.37054422  0.06686274     1.08390
C157        C  0.40621357  0.49492674  0.12271699     1.08260
O158        O  0.38276660  0.46730903  0.18409611    -0.81330
O159        O  0.28486502  0.37054649  0.09417376    -0.81400
O160        O  0.34044631  0.35857671  0.16304206    -0.81340
O161        O  0.29169797  0.44005924  0.13877036    -0.81320
O162        O  0.28837627  0.42555116  0.08585829    -0.81370
O163        O  0.35266944  0.40427421  0.18618992    -0.81340
O164        O  0.33588576  0.45776854  0.18489874    -0.81300
O165        O  0.29517903  0.37037890  0.14706310    -0.81370
Co166      Co  0.37597387  0.43533547  0.14819917     1.51530
Co167      Co  0.31974977  0.41229997  0.07915464     1.51690
Co168      Co  0.33914728  0.38821763  0.13632217     1.51570
Co169      Co  0.33711472  0.46593082  0.13737151     1.51470
O170        O  0.33907367  0.42692633  0.12371897    -1.43260
C171        C  0.36125281  0.46901475  0.19924215     1.08290
C172        C  0.27646667  0.35957024  0.12315622     1.08380
C173        C  0.34693985  0.37627885  0.18910608     1.08320
C174        C  0.27685204  0.43136461  0.11199538     1.08290
C175        C  0.49422370  0.05337735  0.12117452    -0.10340
C176        C  0.49535030  0.08179007  0.12254829     0.05850
C177        C  0.46735502  0.08125445  0.11981358    -0.04110
C178        C  0.43898007  0.05280945  0.11811586    -0.08560
C179        C  0.43743295  0.02408585  0.11846094     0.04970
C180        C  0.46592723  0.02481900  0.11853420    -0.03590
Br181      Br  0.46884696  0.98838463  0.11660987    -0.03280
H182        H  0.01552787  0.05338024  0.12270749     0.08880
H183        H  0.41783915  0.05326560  0.11748763     0.06900
Br184      Br  0.46601421  0.11859796  0.12041796    -0.03710
C185        C  0.24440382  0.30804500  0.14762134    -0.10340
C186        C  0.24612480  0.33103230  0.12785803     0.05850
C187        C  0.21991661  0.32448713  0.11013811    -0.04110
C188        C  0.19317650  0.29521639  0.11148926    -0.08560
C189        C  0.19203524  0.27157171  0.12942384     0.04970
C190        C  0.21785941  0.27829861  0.14815213    -0.03590
Br191      Br  0.22004956  0.24732400  0.17149502    -0.03280
H192        H  0.26456436  0.31250900  0.16093103     0.08880
H193        H  0.17347489  0.29052498  0.09716506     0.06900
Br194      Br  0.21900653  0.35377429  0.08278294    -0.03710
C195        C  0.17113829  0.15795885  0.22536725    -0.10340
C196        C  0.15521692  0.17391345  0.22893497     0.05850
C197        C  0.15247013  0.18531321  0.26126664    -0.04110
C198        C  0.16219383  0.17735606  0.28927403    -0.08560
C199        C  0.17500034  0.15844857  0.28563467     0.04970
C200        C  0.18101592  0.15028465  0.25309184    -0.03590
Br201      Br  0.20179434  0.12754123  0.24454321    -0.03280
H202        H  0.17438269  0.14967758  0.20095168     0.08880
H203        H  0.15813196  0.18448813  0.31395717     0.06900
Br204      Br  0.13558759  0.21161923  0.26907477    -0.03710
C205        C  0.15002946  0.13804235  0.02989300    -0.10340
C206        C  0.16271976  0.16883839  0.04138296     0.05850
C207        C  0.18221838  0.19311945  0.02031585    -0.04110
C208        C  0.18784388  0.18610541  0.98746454    -0.08560
C209        C  0.17491018  0.15501390  0.47581306     0.04970
C210        C  0.15656855  0.13085400  0.49792337    -0.03590
Br211      Br  0.13779907  0.08718245  0.48664996    -0.03280
H212        H  0.13400834  0.11933374  0.04558744     0.08880
H213        H  0.20241220  0.20486636  0.47114829     0.06900
Br214      Br  0.20052546  0.23592694  0.03517548    -0.03710
C215        C  0.18573722  0.01740838  0.02290044    -0.10340
C216        C  0.15391293  0.49605468  0.02787066     0.05850
C217        C  0.13319837  0.49177505  0.00249921    -0.04110
C218        C  0.14456463  0.00580753  0.47233054    -0.08560
C219        C  0.17601606  0.02644780  0.46700163     0.04970
C220        C  0.19676478  0.03323635  0.99290738    -0.03590
Br221      Br  0.23998342  0.06330425  0.98795932    -0.03280
H222        H  0.20200380  0.02140443  0.04196027     0.08880
H223        H  0.12826776  0.00129449  0.45319890     0.06900
Br224      Br  0.08860781  0.46828710  0.00665814    -0.03710
C225        C  0.13932509  0.00134864  0.27344769    -0.10340
C226        C  0.17024634  0.01873734  0.28273943     0.05850
C227        C  0.19339083  0.02093972  0.26028560    -0.04110
C228        C  0.18529130  0.50734964  0.22801070    -0.08560
C229        C  0.15416945  0.49071103  0.21847193     0.04970
C230        C  0.13098973  0.98655749  0.24221525    -0.03590
Br231      Br  0.08738477  0.96336021  0.23354557    -0.03280
H232        H  0.12153297  0.00064793  0.29008512     0.08880
H233        H  0.20321916  0.50997348  0.21036916     0.06900
Br234      Br  0.23618901  0.04408379  0.27206128    -0.03710
C235        C  0.12300611  0.05211868  0.12042478    -0.10340
C236        C  0.09861042  0.02522046  0.13475959     0.05850
C237        C  0.07328869  0.02695020  0.14871138    -0.04110
C238        C  0.07297193  0.05470306  0.14852162    -0.08560
C239        C  0.09751873  0.08167734  0.13470919     0.04970
C240        C  0.12299972  0.08015474  0.12098332    -0.03590
Br241      Br  0.16061580  0.11639534  0.10754436    -0.03280
H242        H  0.14312245  0.05190414  0.11037087     0.08880
H243        H  0.05350024  0.05535119  0.15993068     0.06900
Br244      Br  0.03781521  0.49238909  0.16803369    -0.03710
C245        C  0.11118347  0.29438149  0.10008029    -0.10340
C246        C  0.09042735  0.27195313  0.12241057     0.05850
C247        C  0.07203869  0.27960537  0.14364977    -0.04110
C248        C  0.07397804  0.30836492  0.14118724    -0.08560
C249        C  0.09356756  0.32990843  0.11750196     0.04970
C250        C  0.11280203  0.32279189  0.09736842    -0.03590
Br251      Br  0.14198768  0.35073135  0.06555274    -0.03280
H252        H  0.12585716  0.28952685  0.08368304     0.08880
H253        H  0.05889381  0.31323133  0.15688271     0.06900
Br254      Br  0.04224713  0.25140367  0.17492604    -0.03710
C255        C  0.20509515  0.42862381  0.08140811    -0.10340
C256        C  0.18983722  0.42888582  0.11144235     0.05850
C257        C  0.20351892  0.42975624  0.14166483    -0.04110
C258        C  0.23142474  0.43003719  0.14109497    -0.08560
C259        C  0.24665085  0.42984225  0.11095346     0.04970
C260        C  0.23306349  0.42934312  0.08078247    -0.03590
Br261      Br  0.25136908  0.43091909  0.03741008    -0.03280
H262        H  0.19553327  0.42847742  0.05781065     0.08880
H263        H  0.24135219  0.43056566  0.16459002     0.06900
Br264      Br  0.18586071  0.43066489  0.18466322    -0.03710
C265        C  0.47353378  0.40529537  0.10682922    -0.10340
C266        C  0.48977556  0.41043566  0.13625452     0.05850
C267        C  0.47742804  0.41481173  0.16698724    -0.04110
C268        C  0.45026749  0.41499829  0.16746974    -0.08560
C269        C  0.43499867  0.41175971  0.13814288     0.04970
C270        C  0.44628621  0.40619072  0.10750194    -0.03590
Br271      Br  0.42741848  0.40262563  0.06592658    -0.03280
H272        H  0.48264284  0.40178198  0.08319462     0.08880
H273        H  0.44134253  0.41856809  0.19124401     0.06900
Br274      Br  0.99553143  0.42109689  0.21008021    -0.03710
C275        C  0.02224422  0.16215178  0.47525102    -0.10340
C276        C  0.49206059  0.15640292  0.47666599     0.05850
C277        C  0.47923958  0.15958337  0.00708985    -0.04110
C278        C  0.99597289  0.16619251  0.03620233    -0.08560
C279        C  0.02548614  0.16964184  0.03520057     0.04970
C280        C  0.03908869  0.16871547  0.00396657    -0.03590
Br281      Br  0.08013729  0.17562853  0.99748098    -0.03280
H282        H  0.03229591  0.15988451  0.45166629     0.08880
H283        H  0.98558878  0.16807739  0.05965906     0.06900
Br284      Br  0.44000422  0.15672544  0.00953240    -0.03710
C285        C  0.98874445  0.12821137  0.26520469    -0.10340
C286        C  0.46640899  0.13672761  0.26731708     0.05850
C287        C  0.46517740  0.15445890  0.24235855    -0.04110
C288        C  0.98738268  0.16449712  0.21656000    -0.08560
C289        C  0.01094181  0.15757240  0.21619661     0.04970
C290        C  0.01092788  0.13845081  0.24027154    -0.03590
Br291      Br  0.03998408  0.12466871  0.24103357    -0.03280
H292        H  0.98997319  0.11453174  0.28417010     0.08880
H293        H  0.48699522  0.17864469  0.19756358     0.06900
Br294      Br  0.43600080  0.16796059  0.24399073    -0.03710
C295        C  0.38453016  0.50695741  0.48165681    -0.10340
C296        C  0.38593649  0.03531090  0.48411280     0.05850
C297        C  0.37393548  0.04338421  0.01243740    -0.04110
C298        C  0.36224474  0.02344694  0.03896423    -0.08560
C299        C  0.36134598  0.49504229  0.03680034     0.04970
C300        C  0.37182953  0.48645745  0.50701226    -0.03590
Br301      Br  0.36926590  0.44723597  0.49681672    -0.03280
H302        H  0.39267130  0.50023520  0.45916522     0.08880
H303        H  0.35387407  0.03016546  0.06119753     0.06900
Br304      Br  0.37354577  0.08122063  0.01633326    -0.03710
C305        C  0.39774250  0.50393524  0.24269385    -0.10340
C306        C  0.36706301  0.48633336  0.23190903     0.05850
C307        C  0.34378317  0.98768513  0.25154212    -0.04110
C308        C  0.35170943  0.00608104  0.28118098    -0.08560
C309        C  0.38262635  0.02440706  0.29126858     0.04970
C310        C  0.40572048  0.02321806  0.27138315    -0.03590
Br311      Br  0.44886852  0.04750731  0.28074415    -0.03280
H312        H  0.41612291  0.50371231  0.22802915     0.08880
H313        H  0.33365370  0.00704110  0.29571891     0.06900
Br314      Br  0.30096464  0.96624614  0.23942392    -0.03710
C315        C  0.03158216  0.07782361  0.40507676    -0.10340
C316        C  0.03106551  0.10316271  0.39334483     0.05850
C317        C  0.05876417  0.12836972  0.38089781    -0.04110
C318        C  0.08614815  0.12756468  0.38021381    -0.08560
C319        C  0.08652612  0.10189756  0.39184151     0.04970
C320        C  0.05849550  0.07663058  0.40360851    -0.03590
Br321      Br  0.05417822  0.03866130  0.41600174    -0.03280
H322        H  0.01050244  0.05820849  0.41469415     0.08880
H323        H  0.10741125  0.14753507  0.37151535     0.06900
Br324      Br  0.06119535  0.16561619  0.36785162    -0.03710
C325        C  0.32160233  0.10465725  0.34050387    -0.10340
C326        C  0.32391315  0.08765812  0.36546875     0.05850
C327        C  0.30040595  0.07519145  0.39046327    -0.04110
C328        C  0.27536775  0.07944258  0.38962151    -0.08560
C329        C  0.27253503  0.09555343  0.36417902     0.04970
C330        C  0.29630349  0.10877897  0.33971043    -0.03590
Br331      Br  0.29626664  0.13360755  0.30532490    -0.03280
H332        H  0.33969967  0.11508239  0.32166999     0.08880
H333        H  0.25722262  0.06878387  0.40836873     0.06900
Br334      Br  0.29915834  0.05025469  0.42566037    -0.03710
C335        C  0.47490138  0.33316270  0.99908897    -0.10340
C336        C  0.49027673  0.34213370  0.46804792     0.05850
C337        C  0.02223450  0.35395745  0.46598745    -0.04110
C338        C  0.03850468  0.35901706  0.49512152    -0.08560
C339        C  0.02352272  0.35277411  0.02658910     0.04970
C340        C  0.49119257  0.33839273  0.02829951    -0.03590
Br341      Br  0.46867061  0.32900801  0.06984390    -0.03280
H342        H  0.45017340  0.32317203  0.00083412     0.08880
H343        H  0.06347941  0.37020413  0.49344762     0.06900
Br344      Br  0.04538051  0.36745736  0.42501593    -0.03710
C345        C  0.02926671  0.36373267  0.24251871    -0.10340
C346        C  0.01500607  0.35881099  0.21183115     0.05850
C347        C  0.48317818  0.34901805  0.21188546    -0.04110
C348        C  0.46786360  0.34869352  0.24199178    -0.08560
C349        C  0.48281711  0.35555689  0.27247779     0.04970
C350        C  0.01296530  0.36056935  0.27254047    -0.03590
Br351      Br  0.03203570  0.36036933  0.31236579    -0.03280
H352        H  0.05312922  0.36968064  0.24316216     0.08880
H353        H  0.44424294  0.34325654  0.24150475     0.06900
Br354      Br  0.45943840  0.33743795  0.17204485    -0.03710
C355        C  0.44973787  0.47323762  0.35632433    -0.10340
C356        C  0.42456793  0.44477834  0.36666560     0.05850
C357        C  0.39783330  0.44415398  0.37946193    -0.04110
C358        C  0.39704716  0.47157520  0.38213435    -0.08560
C359        C  0.42239926  0.50034949  0.37228521     0.04970
C360        C  0.44899103  0.50072366  0.35895648    -0.03590
Br361      Br  0.48532133  0.03704845  0.34328024    -0.03280
H362        H  0.47038477  0.47420674  0.34608447     0.08880
H363        H  0.37618682  0.47017595  0.39227023     0.06900
Br364      Br  0.36075299  0.40665310  0.39217613    -0.03710
C365        C  0.43640547  0.23885362  0.41215596    -0.10460
C366        C  0.41727009  0.24209147  0.39074910     0.05850
C367        C  0.40105583  0.21902791  0.36580642    -0.04110
C368        C  0.40490153  0.19358786  0.36198766    -0.08560
C369        C  0.42566929  0.19128267  0.38190903     0.04970
C370        C  0.44115254  0.21394994  0.40763567    -0.03590
Br371      Br  0.46933689  0.21281165  0.43704002    -0.03280
H372        H  0.44930928  0.25685174  0.43110690     0.08880
H373        H  0.39265206  0.17626822  0.34224344     0.06900
Br374      Br  0.37435141  0.22168814  0.33554804    -0.03710
C375        C  0.05439210  0.43304287  0.36681497    -0.10340
C376        C  0.02930727  0.42834361  0.38745790     0.05850
C377        C  0.03480683  0.45120631  0.41276132    -0.04110
C378        C  0.06403169  0.47869957  0.41512352    -0.08560
C379        C  0.08808276  0.48496069  0.39187174     0.04970
C380        C  0.08352301  0.46043234  0.36919106    -0.03590
Br381      Br  0.11640078  0.46074094  0.34329415    -0.03280
H382        H  0.05135290  0.41545010  0.34813420     0.08880
H383        H  0.06787675  0.99533416  0.43540982     0.06900
Br384      Br  0.50383560  0.44579515  0.44556395    -0.03710
C385        C  0.27929943  0.21423837  0.34882656    -0.10340
C386        C  0.27340160  0.19005241  0.36919598     0.05850
C387        C  0.29524380  0.19565181  0.39333889    -0.04110
C388        C  0.32217278  0.22521925  0.39696291    -0.08560
C389        C  0.32789645  0.24973969  0.37690411     0.04970
C390        C  0.30581820  0.24385706  0.35268965    -0.03590
Br391      Br  0.30828015  0.27551366  0.32613234    -0.03280
H392        H  0.26237819  0.21044999  0.33064301     0.08880
H393        H  0.33881976  0.22899712  0.41547269     0.06900
Br394      Br  0.29002793  0.16344300  0.42092973    -0.03710
C395        C  0.33758054  0.35387481  0.47422988    -0.10340
C396        C  0.35897812  0.34413152  0.47119752     0.05850
C397        C  0.36634343  0.33488729  0.00040603    -0.04110
C398        C  0.35640112  0.34005180  0.03196626    -0.08560
C399        C  0.33831684  0.35359661  0.03520525     0.04970
C400        C  0.32699976  0.35825569  0.50585920    -0.03590
Br401      Br  0.29759607  0.37153076  0.50802202    -0.03280
H402        H  0.33038045  0.35972223  0.45227471     0.08880
H403        H  0.36465556  0.33550331  0.05403869     0.06900
Br404      Br  0.38991095  0.31492021  0.99903438    -0.03710
C405        C  0.35964691  0.34484963  0.22398078    -0.10340
C406        C  0.34931865  0.36587538  0.22229051     0.05850
C407        C  0.34486143  0.37904078  0.25250742    -0.04110
C408        C  0.35296187  0.37310126  0.28287938    -0.08560
C409        C  0.36546150  0.35400508  0.28421722     0.04970
C410        C  0.36752625  0.33877254  0.25454139    -0.03590
Br411      Br  0.37931497  0.30826159  0.25483338    -0.03280
H412        H  0.36266289  0.33388596  0.20133406     0.08880
H413        H  0.35046227  0.38440662  0.30554784     0.06900
Br414      Br  0.32715499  0.40478755  0.25437852    -0.03710
O415        O  0.44461150  0.41532976  0.83970530    -0.81330
O416        O  0.45290898  0.34880270  0.94406227    -0.81350
O417        O  0.36376624  0.33813999  0.91063391    -0.81360
O418        O  0.49585150  0.37544267  0.86764771    -0.81300
O419        O  0.40384814  0.35447461  0.94029529    -0.81420
O420        O  0.47400216  0.40197268  0.88561298    -0.81340
O421        O  0.47445698  0.32872926  0.91124116    -0.81330
O422        O  0.41016654  0.39237558  0.87999943    -0.81360
C423        C  0.42634554  0.41624028  0.86170824     1.08360
C424        C  0.47245739  0.34066593  0.93929627     1.08250
C425        C  0.37606998  0.34646767  0.93910469     1.08390
C426        C  0.49802908  0.40021458  0.88099882     1.08260
O427        O  0.46854172  0.37918215  0.81799117    -0.81330
O428        O  0.36779378  0.28967344  0.91145157    -0.81400
O429        O  0.36227218  0.34860370  0.84318675    -0.81340
O430        O  0.42743590  0.28644615  0.86436799    -0.81320
O431        O  0.41825100  0.28540557  0.91836565    -0.81370
O432        O  0.40510676  0.35592850  0.81776829    -0.81340
O433        O  0.45059773  0.32973430  0.81849634    -0.81300
O434        O  0.36820384  0.29932145  0.85852454    -0.81370
Co435      Co  0.43904976  0.37781803  0.85478552     1.51530
Co436      Co  0.41164248  0.32136549  0.92634485     1.51690
Co437      Co  0.39081265  0.34461086  0.86857658     1.51570
Co438      Co  0.45977551  0.33049038  0.86573178     1.51470
O439        O  0.42683901  0.34039155  0.88130149    -1.43260
C440        C  0.46600864  0.35478488  0.80391135     1.08290
C441        C  0.35631817  0.28101385  0.88233783     1.08380
C442        C  0.37785799  0.35240849  0.81641005     1.08320
C443        C  0.41955422  0.27218138  0.89101816     1.08290
O444        O  0.42101255  0.12307629  0.80062500    -0.81330
O445        O  0.44266434  0.05591485  0.87363576    -0.81350
O446        O  0.99226041  0.11260851  0.87297755    -0.81360
O447        O  0.37005249  0.04018821  0.84400565    -0.81300
O448        O  0.48425532  0.09039288  0.92155930    -0.81420
O449        O  0.41562656  0.07091555  0.82289533    -0.81340
O450        O  0.39549316  0.02569098  0.89169890    -0.81330
O451        O  0.46383546  0.13137140  0.82460398    -0.81360
C452        C  0.44917606  0.13063512  0.79878987     1.08360
C453        C  0.42013549  0.02875466  0.87847686     1.08250
C454        C  0.00165849  0.10287121  0.89645489     1.08390
C455        C  0.39007999  0.04575257  0.82107937     1.08260
O456        O  0.36826652  0.08808855  0.84016477    -0.81330
O457        O  0.45067513  0.11591700  0.94665131    -0.81400
O458        O  0.45648868  0.16816002  0.87887179    -0.81340
O459        O  0.38314575  0.06290928  0.94087300    -0.81320
O460        O  0.42313459  0.05729381  0.94169710    -0.81370
O461        O  0.40955162  0.14067023  0.86175096    -0.81340
O462        O  0.35839566  0.07821495  0.89278620    -0.81300
O463        O  0.48574380  0.15341398  0.91924893    -0.81370
Co464      Co  0.41453462  0.10690382  0.84350862     1.51530
Co465      Co  0.44803790  0.08847262  0.90825424     1.51690
Co466      Co  0.46803779  0.13593394  0.87503872     1.51570
Co467      Co  0.37943792  0.05486633  0.89229936     1.51470
O468        O  0.42044901  0.09718896  0.88745788    -1.43260
C469        C  0.35131938  0.08432746  0.86596467     1.08290
C470        C  0.47407345  0.14239592  0.94662933     1.08380
C471        C  0.43083479  0.16542601  0.87430816     1.08320
C472        C  0.39873465  0.05424600  0.95530760     1.08290
O473        O  0.02583150  0.39701368  0.61317792    -0.81330
O474        O  0.15598140  0.48071101  0.58402647    -0.81350
O475        O  0.08936675  0.47903508  0.66046782    -0.81360
O476        O  0.06491239  0.39613257  0.55191499    -0.81300
O477        O  0.11648598  0.49087340  0.61554231    -0.81420
O478        O  0.03899252  0.35699090  0.58387001    -0.81340
O479        O  0.11662692  0.45029093  0.55218014    -0.81330
O480        O  0.03769982  0.42544543  0.65836202    -0.81360
C481        C  0.01924654  0.41130114  0.63524223     1.08360
C482        C  0.14201641  0.47523096  0.55648324     1.08250
C483        C  0.10118908  0.49684677  0.63663699     1.08390
C484        C  0.04303744  0.36885661  0.55575815     1.08260
O485        O  0.08276654  0.36926508  0.63613271    -0.81330
O486        O  0.15912695  0.49261282  0.65841822    -0.81400
O487        O  0.06280830  0.39125509  0.68184116    -0.81340
O488        O  0.14883143  0.42541273  0.58127922    -0.81320
O489        O  0.14900568  0.43622643  0.63406769    -0.81370
O490        O  0.02356411  0.35417817  0.65297454    -0.81340
O491        O  0.09518656  0.36853726  0.58373208    -0.81300
O492        O  0.12262323  0.44914185  0.68086096    -0.81370
Co493      Co  0.05541263  0.38496521  0.62558471     1.51530
Co494      Co  0.13049749  0.46202678  0.62632709     1.51690
Co495      Co  0.07987494  0.43513724  0.66471463     1.51570
Co496      Co  0.10521419  0.41102572  0.57046203     1.51470
O497        O  0.09043494  0.42556652  0.61255686    -1.43260
C498        C  0.09138697  0.35787355  0.61248104     1.08290
C499        C  0.14535869  0.47734978  0.68440966     1.08380
C500        C  0.03446718  0.36794386  0.68095645     1.08320
C501        C  0.16079772  0.42951930  0.60933453     1.08290
O502        O  0.18822281  0.15725645  0.84292673    -0.81330
O503        O  0.13833588  0.02415303  0.87109374    -0.81350
O504        O  0.17173457  0.06235081  0.80695203    -0.81360
O505        O  0.12068774  0.08845500  0.91477129    -0.81300
O506        O  0.18883915  0.04003426  0.83766061    -0.81420
O507        O  0.13842690  0.11971209  0.87435006    -0.81340
O508        O  0.12163348  0.03622546  0.91570898    -0.81330
O509        O  0.17081360  0.11549524  0.81040764    -0.81360
C510        C  0.17800224  0.14339754  0.81463772     1.08360
C511        C  0.11733677  0.01648200  0.89271371     1.08250
C512        C  0.17746950  0.04121434  0.81063275     1.08390
C513        C  0.11643770  0.10298346  0.89333903     1.08260
O514        O  0.18276888  0.16313366  0.91643673    -0.81330
O515        O  0.22582816  0.08940910  0.88751521    -0.81400
O516        O  0.23275461  0.14869826  0.83726939    -0.81340
O517        O  0.18652925  0.06990618  0.93628478    -0.81320
O518        O  0.18509068  0.03018595  0.90807449    -0.81370
O519        O  0.22610032  0.14885683  0.89093410    -0.81340
O520        O  0.18574126  0.12515275  0.93608744    -0.81300
O521        O  0.23283246  0.09502769  0.83413905    -0.81370
Co522      Co  0.18123256  0.13212289  0.88400778     1.51530
Co523      Co  0.18143238  0.05817747  0.88084664     1.51690
Co524      Co  0.19984937  0.10424818  0.82505733     1.51570
Co525      Co  0.15550944  0.08099557  0.92051043     1.51470
O526        O  0.17323535  0.09032045  0.86836786    -1.43260
C527        C  0.18095401  0.14761215  0.94134975     1.08290
C528        C  0.24302668  0.09473365  0.86209414     1.08380
C529        C  0.24329308  0.16041416  0.86586269     1.08320
C530        C  0.18436778  0.04324900  0.93594614     1.08290
O531        O  0.03490359  0.11709456  0.65996881    -0.81330
O532        O  0.12237307  0.17032816  0.57106957    -0.81350
O533        O  0.03068447  0.17910299  0.59388604    -0.81360
O534        O  0.10641094  0.13049940  0.61582679    -0.81300
O535        O  0.06544024  0.17149069  0.56683524    -0.81420
O536        O  0.08927005  0.11832683  0.66674101    -0.81340
O537        O  0.16329622  0.17995107  0.59995004    -0.81330
O538        O  0.03871708  0.13155714  0.60886362    -0.81360
C539        C  0.02497174  0.11126363  0.63041839     1.08360
C540        C  0.14980365  0.17456059  0.57215393     1.08250
C541        C  0.04156264  0.17447036  0.56657879     1.08390
C542        C  0.09733215  0.11142322  0.63882729     1.08260
O543        O  0.11522871  0.17722042  0.70394613    -0.81330
O544        O  0.09930766  0.23367974  0.59583905    -0.81400
O545        O  0.02684289  0.16450638  0.66001490    -0.81340
O546        O  0.15641680  0.21957284  0.64543237    -0.81320
O547        O  0.15032566  0.23264906  0.59816105    -0.81370
O548        O  0.06178232  0.17692004  0.69695013    -0.81340
O549        O  0.14506139  0.16807434  0.67025653    -0.81300
O550        O  0.07201416  0.21983610  0.64048172    -0.81370
Co551      Co  0.07649654  0.14958237  0.67929710     1.51530
Co552      Co  0.10731752  0.19879933  0.58931577     1.51690
Co553      Co  0.05768057  0.17669245  0.62306591     1.51570
Co554      Co  0.13035143  0.17622222  0.62856564     1.51470
O555        O  0.09415976  0.17881553  0.63987676    -1.43260
C556        C  0.13842051  0.17417315  0.69954277     1.08290
C557        C  0.08733004  0.24059974  0.62018706     1.08380
C558        C  0.03450148  0.16851889  0.69001286     1.08320
C559        C  0.16494534  0.23994141  0.62466778     1.08290
O560        O  0.41098849  0.43694411  0.66358019    -0.81330
O561        O  0.35207183  0.45123681  0.56303515    -0.81350
O562        O  0.32866670  0.35863942  0.59497773    -0.81360
O563        O  0.38374416  0.49708572  0.63560649    -0.81300
O564        O  0.34846072  0.39884351  0.56553197    -0.81420
O565        O  0.40254014  0.46822837  0.61663870    -0.81340
O566        O  0.33785621  0.48010724  0.59108978    -0.81330
O567        O  0.38491771  0.40213418  0.62345025    -0.81360
C568        C  0.40920334  0.41707441  0.64164380     1.08360
C569        C  0.34997556  0.47477982  0.56522761     1.08250
C570        C  0.33850960  0.37054617  0.56686495     1.08390
C571        C  0.40621046  0.49492901  0.62271720     1.08260
O572        O  0.38276372  0.46731247  0.68409614    -0.81330
O573        O  0.28486282  0.37054773  0.59417562    -0.81400
O574        O  0.34044566  0.35858044  0.66304612    -0.81340
O575        O  0.29169451  0.44006114  0.63877014    -0.81320
O576        O  0.28837287  0.42555161  0.58585847    -0.81370
O577        O  0.35266821  0.40427808  0.68619245    -0.81340
O578        O  0.33588285  0.45777213  0.68489901    -0.81300
O579        O  0.29517675  0.37038036  0.64706515    -0.81370
Co580      Co  0.37597142  0.43533837  0.64820051     1.51530
Co581      Co  0.31974712  0.41230116  0.57915595     1.51690
Co582      Co  0.33914521  0.38821996  0.63632460     1.51570
Co583      Co  0.33711140  0.46593293  0.63737131     1.51470
O584        O  0.33907066  0.42692813  0.62372042    -1.43260
C585        C  0.36125009  0.46901845  0.69924212     1.08290
C586        C  0.27646447  0.35957157  0.62315813     1.08380
C587        C  0.34694059  0.37628354  0.68910959     1.08320
C588        C  0.27684847  0.43136552  0.61199514     1.08290
C589        C  0.49422318  0.05337776  0.62117498    -0.10340
C590        C  0.49534977  0.08179052  0.62254970     0.05850
C591        C  0.46735440  0.08125490  0.61981595    -0.04110
C592        C  0.43897945  0.05280991  0.61811802    -0.08560
C593        C  0.43743236  0.02408626  0.61846205     0.04970
C594        C  0.46592667  0.02481941  0.61853457    -0.03590
Br595      Br  0.46884633  0.98838496  0.61660898    -0.03280
H596        H  0.01552746  0.05338064  0.62270756     0.08880
H597        H  0.41783853  0.05326609  0.61749043     0.06900
Br598      Br  0.46601338  0.11859834  0.62042169    -0.03710
C599        C  0.24440180  0.30804621  0.64762292    -0.10340
C600        C  0.24612266  0.33103351  0.62785975     0.05850
C601        C  0.21991450  0.32448812  0.61013953    -0.04110
C602        C  0.19317464  0.29521716  0.61149019    -0.08560
C603        C  0.19203365  0.27157248  0.62942448     0.04970
C604        C  0.21785768  0.27829961  0.64815318    -0.03590
Br605      Br  0.22004816  0.24732516  0.67149602    -0.03280
H606        H  0.26456229  0.31251039  0.66093285     0.08880
H607        H  0.17347303  0.29052561  0.59716586     0.06900
Br608      Br  0.21900405  0.35377513  0.58278451    -0.03710
C609        C  0.17114105  0.15796234  0.72536714    -0.10340
C610        C  0.15521758  0.17391485  0.72893557     0.05850
C611        C  0.15247010  0.18531344  0.76126771    -0.04110
C612        C  0.16219530  0.17735712  0.78927464    -0.08560
C613        C  0.17500418  0.15845173  0.78563451     0.04970
C614        C  0.18102029  0.15028913  0.75309129    -0.03590
Br615      Br  0.20180188  0.12754896  0.74454166    -0.03280
H616        H  0.17438617  0.14968210  0.70095130     0.08880
H617        H  0.15813286  0.18448816  0.81395806     0.06900
Br618      Br  0.13558477  0.21161688  0.76907721    -0.03710
C619        C  0.15002810  0.13804231  0.52989413    -0.10340
C620        C  0.16271849  0.16883853  0.54138344     0.05850
C621        C  0.18221606  0.19311920  0.52031545    -0.04110
C622        C  0.18784065  0.18610459  0.48746404    -0.08560
C623        C  0.17491348  0.15501491  0.97581284     0.04970
C624        C  0.15657100  0.13085461  0.99792245    -0.03590
Br625      Br  0.13780200  0.08718325  0.98664835    -0.03280
H626        H  0.13400753  0.11933397  0.54558918     0.08880
H627        H  0.20241616  0.20486751  0.97114943     0.06900
Br628      Br  0.20052273  0.23592692  0.53517401    -0.03710
C629        C  0.18573658  0.01740818  0.52290015    -0.10340
C630        C  0.15390827  0.49605111  0.52786715     0.05850
C631        C  0.13319620  0.49176052  0.50248696    -0.04110
C632        C  0.14456732  0.00580494  0.97232749    -0.08560
C633        C  0.17601858  0.02644765  0.96700077     0.04970
C634        C  0.19676338  0.03323540  0.49290666    -0.03590
Br635      Br  0.23998238  0.06330097  0.48795604    -0.03280
H636        H  0.20200380  0.02140291  0.54195865     0.08880
H637        H  0.12827121  0.00129088  0.95319452     0.06900
Br638      Br  0.08860458  0.46825947  0.50663114    -0.03710
C639        C  0.13932822  0.00135211  0.77344729    -0.10340
C640        C  0.17024965  0.01873960  0.78273858     0.05850
C641        C  0.19339335  0.02094065  0.76028437    -0.04110
C642        C  0.18529144  0.50735173  0.72800999    -0.08560
C643        C  0.15416869  0.49070930  0.71847444     0.04970
C644        C  0.13099188  0.98656066  0.74221508    -0.03590
Br645      Br  0.08738683  0.96336519  0.73354600    -0.03280
H646        H  0.12153676  0.00065257  0.79008493     0.08880
H647        H  0.20321879  0.50997866  0.71036600     0.06900
Br648      Br  0.23619176  0.04408349  0.77205923    -0.03710
C649        C  0.12300548  0.05211942  0.62042545    -0.10340
C650        C  0.09860973  0.02522109  0.63476001     0.05850
C651        C  0.07328796  0.02695075  0.64871186    -0.04110
C652        C  0.07297125  0.05470367  0.64852238    -0.08560
C653        C  0.09751812  0.08167804  0.63471015     0.04970
C654        C  0.12299913  0.08015550  0.62098426    -0.03590
Br655      Br  0.16061531  0.11639620  0.60754570    -0.03280
H656        H  0.14312186  0.05190494  0.61037154     0.08880
H657        H  0.05349954  0.05535177  0.65993144     0.06900
Br658      Br  0.03781451  0.49239141  0.66804541    -0.03710
C659        C  0.11117897  0.29438091  0.60007579    -0.10340
C660        C  0.09042298  0.27195233  0.62240607     0.05850
C661        C  0.07203244  0.27960337  0.64364351    -0.04110
C662        C  0.07397099  0.30836249  0.64118054    -0.08560
C663        C  0.09356117  0.32990666  0.61749610     0.04970
C664        C  0.11279636  0.32279074  0.59736310    -0.03590
Br665      Br  0.14198178  0.35073062  0.56554757    -0.03280
H666        H  0.12585371  0.28952697  0.58367950     0.08880
H667        H  0.05888583  0.31322818  0.65687522     0.06900
Br668      Br  0.04223911  0.25140043  0.67491769    -0.03710
C669        C  0.20509051  0.42862273  0.58140693    -0.10340
C670        C  0.18983265  0.42888514  0.61144105     0.05850
C671        C  0.20351438  0.42975568  0.64166364    -0.04110
C672        C  0.23142044  0.43003713  0.64109403    -0.08560
C673        C  0.24664680  0.42984233  0.61095272     0.04970
C674        C  0.23305911  0.42934238  0.58078156    -0.03590
Br675      Br  0.25136466  0.43091764  0.53740934    -0.03280
H676        H  0.19552844  0.42847595  0.55780943     0.08880
H677        H  0.24134789  0.43056588  0.66458918     0.06900
Br678      Br  0.18585589  0.43066373  0.68466208    -0.03710
C679        C  0.47353165  0.40529815  0.60683327    -0.10340
C680        C  0.48977302  0.41043798  0.63625881     0.05850
C681        C  0.47742535  0.41481414  0.66699136    -0.04110
C682        C  0.45026525  0.41500168  0.66747340    -0.08560
C683        C  0.43499685  0.41176338  0.63814625     0.04970
C684        C  0.44628451  0.40619420  0.60750554    -0.03590
Br685      Br  0.42741752  0.40262988  0.56592987    -0.03280
H686        H  0.48264064  0.40178433  0.58319882     0.08880
H687        H  0.44134010  0.41857159  0.69124748     0.06900
Br688      Br  0.99552738  0.42109687  0.71008418    -0.03710
C689        C  0.02224965  0.16215732  0.97525044    -0.10340
C690        C  0.49206538  0.15640660  0.97666474     0.05850
C691        C  0.47923571  0.15958032  0.50709146    -0.04110
C692        C  0.99596975  0.16618950  0.53620345    -0.08560
C693        C  0.02548270  0.16963801  0.53520092     0.04970
C694        C  0.03908382  0.16870966  0.50396663    -0.03590
Br695      Br  0.08013117  0.17561966  0.49747977    -0.03280
H696        H  0.03230221  0.15989092  0.95166596     0.08880
H697        H  0.98558655  0.16807544  0.55966038     0.06900
Br698      Br  0.44000078  0.15672334  0.50953536    -0.03710
C699        C  0.98874517  0.12820921  0.76520289    -0.10340
C700        C  0.46640973  0.13672549  0.76731687     0.05850
C701        C  0.46517783  0.15445775  0.74235967    -0.04110
C702        C  0.98738298  0.16449707  0.71656104    -0.08560
C703        C  0.01094242  0.15757276  0.71619655     0.04970
C704        C  0.01092880  0.13845022  0.74027007    -0.03590
Br705      Br  0.03998614  0.12466948  0.74103125    -0.03280
H706        H  0.98997425  0.11452894  0.78416728     0.08880
H707        H  0.48699528  0.17864531  0.69756555     0.06900
Br708      Br  0.43600120  0.16795945  0.74399393    -0.03710
C709        C  0.38453352  0.50695793  0.98165764    -0.10340
C710        C  0.38594113  0.03531226  0.98411419     0.05850
C711        C  0.37393084  0.04338274  0.51243610    -0.04110
C712        C  0.36224142  0.02344605  0.53896356    -0.08560
C713        C  0.36134199  0.49504233  0.53679931     0.04970
C714        C  0.37183246  0.48645738  0.00701249    -0.03590
Br715      Br  0.36926658  0.44723511  0.99681502    -0.03280
H716        H  0.39267378  0.50023569  0.95916537     0.08880
H717        H  0.35387068  0.03016452  0.56119684     0.06900
Br718      Br  0.37353959  0.08121838  0.51633131    -0.03710
C719        C  0.39774032  0.50393628  0.74269441    -0.10340
C720        C  0.36706088  0.48633696  0.73190901     0.05850
C721        C  0.34378344  0.98768483  0.75154390    -0.04110
C722        C  0.35171026  0.00608048  0.78118302    -0.08560
C723        C  0.38262737  0.02440616  0.79127017     0.04970
C724        C  0.40572103  0.02321697  0.77138405    -0.03590
Br725      Br  0.44886922  0.04750573  0.78074411    -0.03280
H726        H  0.41612012  0.50371209  0.72802978     0.08880
H727        H  0.33365485  0.00704067  0.79572149     0.06900
Br728      Br  0.30096480  0.96624626  0.73942628    -0.03710
C729        C  0.03158628  0.07782248  0.90507165    -0.10340
C730        C  0.03106998  0.10316356  0.89334539     0.05850
C731        C  0.05876917  0.12837328  0.88090307    -0.04110
C732        C  0.08615362  0.12756911  0.88021836    -0.08560
C733        C  0.08653112  0.10189976  0.89183990     0.04970
C734        C  0.05849984  0.07662989  0.90360117    -0.03590
Br735      Br  0.05418206  0.03865688  0.91598039    -0.03280
H736        H  0.01050607  0.05820534  0.91468531     0.08880
H737        H  0.10741723  0.14754152  0.87152413     0.06900
Br738      Br  0.06119990  0.16562163  0.86786455    -0.03710
C739        C  0.32160671  0.10465864  0.84050642    -0.10340
C740        C  0.32391676  0.08765875  0.86547099     0.05850
C741        C  0.30040907  0.07519174  0.89046493    -0.04110
C742        C  0.27537098  0.07944308  0.88962275    -0.08560
C743        C  0.27253898  0.09555458  0.86418041     0.04970
C744        C  0.29630809  0.10878066  0.83971260    -0.03590
Br745      Br  0.29627247  0.13361044  0.80532769    -0.03280
H746        H  0.33970450  0.11508414  0.82167305     0.08880
H747        H  0.25722542  0.06878407  0.90836949     0.06900
Br748      Br  0.29916072  0.05025423  0.92566158    -0.03710
C749        C  0.47489692  0.33315814  0.49908497    -0.10340
C750        C  0.49028048  0.34212953  0.96805051     0.05850
C751        C  0.02223636  0.35394140  0.96598920    -0.04110
C752        C  0.03850611  0.35900024  0.99512356    -0.08560
C753        C  0.02351988  0.35278129  0.52658646     0.04970
C754        C  0.49118865  0.33839023  0.52829579    -0.03590
Br755      Br  0.46866475  0.32899430  0.56983915    -0.03280
H756        H  0.45016758  0.32315887  0.50082887     0.08880
H757        H  0.06348011  0.37017964  0.99344908     0.06900
Br758      Br  0.04538179  0.36742598  0.92501534    -0.03710
C759        C  0.02926846  0.36373246  0.74251731    -0.10340
C760        C  0.01500571  0.35881050  0.71183113     0.05850
C761        C  0.48317805  0.34901882  0.71188781    -0.04110
C762        C  0.46786568  0.34869527  0.74199532    -0.08560
C763        C  0.48282133  0.35555899  0.77247993     0.04970
C764        C  0.01296947  0.36057085  0.77254024    -0.03590
Br765      Br  0.03204292  0.36037283  0.81236397    -0.03280
H766        H  0.05313089  0.36967983  0.74315876     0.08880
H767        H  0.44424520  0.34325905  0.74151035     0.06900
Br768      Br  0.45943604  0.33743954  0.67204894    -0.03710
C769        C  0.44974387  0.47323996  0.85632783    -0.10340
C770        C  0.42457508  0.44478060  0.86667069     0.05850
C771        C  0.39784057  0.44415581  0.87946842    -0.04110
C772        C  0.39705334  0.47157652  0.88214026    -0.08560
C773        C  0.42240411  0.50035075  0.87228898     0.04970
C774        C  0.44899584  0.50072541  0.85895917    -0.03590
Br775      Br  0.48532354  0.03704836  0.84327830    -0.03280
H776        H  0.47039068  0.47420959  0.84608692     0.08880
H777        H  0.37619315  0.47017690  0.89227722     0.06900
Br778      Br  0.36076161  0.40665498  0.89218538    -0.03710
C779        C  0.43641353  0.23885528  0.91215382    -0.10460
C780        C  0.41727673  0.24209232  0.89074831     0.05850
C781        C  0.40106172  0.21902850  0.86580615    -0.04110
C782        C  0.40490721  0.19358837  0.86198726    -0.08560
C783        C  0.42567573  0.19128359  0.88190771     0.04970
C784        C  0.44116063  0.21395169  0.90763312    -0.03590
Br785      Br  0.46934719  0.21281454  0.93703515    -0.03280
H786        H  0.44931824  0.25685388  0.93110403     0.08880
H787        H  0.39265686  0.17626823  0.84224373     0.06900
Br788      Br  0.37435657  0.22168844  0.83554862    -0.03710
C789        C  0.05440076  0.43304011  0.86682564    -0.10340
C790        C  0.02931414  0.42834295  0.88746464     0.05850
C791        C  0.03481162  0.45120800  0.91276441    -0.04110
C792        C  0.06403582  0.47870197  0.91512596    -0.08560
C793        C  0.08808785  0.48496175  0.89187611     0.04970
C794        C  0.08353077  0.46043120  0.86920044    -0.03590
Br795      Br  0.11641103  0.46073973  0.84330848    -0.03280
H796        H  0.05136399  0.41544671  0.84815061     0.08880
H797        H  0.06788102  0.99533492  0.93540976     0.06900
Br798      Br  0.50383805  0.44580038  0.94556260    -0.03710
C799        C  0.27930546  0.21424084  0.84882666    -0.10340
C800        C  0.27340717  0.19005466  0.86919602     0.05850
C801        C  0.29524942  0.19565346  0.89333860    -0.04110
C802        C  0.32217885  0.22522055  0.89696240    -0.08560
C803        C  0.32790297  0.24974121  0.87690371     0.04970
C804        C  0.30582474  0.24385921  0.85268955    -0.03590
Br805      Br  0.30828751  0.27551639  0.82613257    -0.03280
H806        H  0.26238425  0.21045292  0.83064330     0.08880
H807        H  0.33882582  0.22899798  0.91547200     0.06900
Br808      Br  0.29003296  0.16344435  0.92092934    -0.03710
C809        C  0.33758511  0.35387394  0.97422834    -0.10340
C810        C  0.35898239  0.34413028  0.97119725     0.05850
C811        C  0.36634120  0.33489009  0.50040615    -0.04110
C812        C  0.35639980  0.34005481  0.53196690    -0.08560
C813        C  0.33831469  0.35359865  0.53520698     0.04970
C814        C  0.32700314  0.35825429  0.00585701    -0.03590
Br815      Br  0.29759949  0.37152938  0.00801839    -0.03280
H816        H  0.33038613  0.35972194  0.95227278     0.08880
H817        H  0.36465561  0.33550725  0.55403888     0.06900
Br818      Br  0.38991096  0.31492536  0.49903397    -0.03710
C819        C  0.35965003  0.34485489  0.72398324    -0.10340
C820        C  0.34932349  0.36588224  0.72229413     0.05850
C821        C  0.34487148  0.37905065  0.75251181    -0.04110
C822        C  0.35297400  0.37311134  0.78288273    -0.08560
C823        C  0.36547076  0.35401252  0.78421922     0.04970
C824        C  0.36753155  0.33877815  0.75454292    -0.03590
Br825      Br  0.37931693  0.30826460  0.75483334    -0.03280
H826        H  0.36266247  0.33388916  0.70133621     0.08880
H827        H  0.35047762  0.38441837  0.80555160     0.06900
Br828      Br  0.32716899  0.40480099  0.75438611    -0.03710
O829        O  0.44460548  0.91532678  0.33970178    -0.81330
O830        O  0.45291018  0.84880804  0.44406091    -0.81350
O831        O  0.36376475  0.83814185  0.41063855    -0.81360
O832        O  0.49584764  0.87544044  0.36764290    -0.81300
O833        O  0.40384988  0.85448005  0.44029485    -0.81420
O834        O  0.47400053  0.90197266  0.38560748    -0.81340
O835        O  0.47445604  0.82873154  0.41124084    -0.81330
O836        O  0.41016326  0.89237564  0.37999903    -0.81360
C837        C  0.42634072  0.91623875  0.36170535     1.08360
C838        C  0.47245830  0.84067100  0.43929495     1.08250
C839        C  0.37607118  0.84647156  0.43910776     1.08390
C840        C  0.49802669  0.90021292  0.38099374     1.08260
O841        O  0.46853364  0.87917712  0.31798763    -0.81330
O842        O  0.36779254  0.78967593  0.41145840    -0.81400
O843        O  0.36226604  0.84860165  0.34319215    -0.81340
O844        O  0.42743093  0.78644452  0.36437232    -0.81320
O845        O  0.41825014  0.78540859  0.41837066    -0.81370
O846        O  0.40509877  0.85592408  0.31777075    -0.81340
O847        O  0.45059049  0.82972948  0.31849618    -0.81300
O848        O  0.36819878  0.79932060  0.35853092    -0.81370
Co849      Co  0.43904498  0.87781615  0.35478409     1.51530
Co850      Co  0.41164254  0.82136932  0.42634744     1.51690
Co851      Co  0.39080847  0.84461035  0.36857966     1.51570
Co852      Co  0.45977114  0.83048870  0.36573154     1.51470
O853        O  0.42683586  0.84039146  0.38130217    -1.43260
C854        C  0.46600030  0.85477921  0.30390925     1.08290
C855        C  0.35631445  0.78101481  0.38234583     1.08380
C856        C  0.37784985  0.85240393  0.31641444     1.08320
C857        C  0.41955025  0.77218170  0.39102381     1.08290
O858        O  0.42100845  0.62307617  0.30062574    -0.81330
O859        O  0.44266169  0.55591538  0.37363925    -0.81350
O860        O  0.99225616  0.61261032  0.37297962    -0.81360
O861        O  0.37005226  0.54018728  0.34400564    -0.81300
O862        O  0.48425184  0.59039566  0.42156234    -0.81420
O863        O  0.41562608  0.57091687  0.32289569    -0.81340
O864        O  0.39549076  0.52569131  0.39170245    -0.81330
O865        O  0.46383229  0.63137674  0.32460751    -0.81360
C866        C  0.44917269  0.63063758  0.29879220     1.08360
C867        C  0.42013309  0.52875509  0.37848056     1.08250
C868        C  0.00165461  0.60287355  0.39645725     1.08390
C869        C  0.39008045  0.54575272  0.32107966     1.08260
O870        O  0.36826299  0.58808597  0.34016344    -0.81330
O871        O  0.45066948  0.61591791  0.44665346    -0.81400
O872        O  0.45648140  0.66815929  0.37887932    -0.81340
O873        O  0.38314077  0.56290958  0.44087357    -0.81320
O874        O  0.42313047  0.55729577  0.44170054    -0.81370
O875        O  0.40954642  0.64066965  0.36175157    -0.81340
O876        O  0.35839229  0.57821359  0.39278478    -0.81300
O877        O  0.48574022  0.65341428  0.41925277    -0.81370
Co878      Co  0.41453130  0.60690393  0.34350926     1.51530
Co879      Co  0.44803388  0.58847364  0.40825675     1.51690
Co880      Co  0.46803347  0.63593554  0.37504255     1.51570
Co881      Co  0.37943498  0.55486585  0.39229995     1.51470
O882        O  0.42044511  0.59718898  0.38745912    -1.43260
C883        C  0.35131542  0.58432462  0.36596291     1.08290
C884        C  0.47406886  0.64239604  0.44663274     1.08380
C885        C  0.43082750  0.66542454  0.37431328     1.08320
C886        C  0.39873012  0.55424800  0.45531009     1.08290
O887        O  0.02584208  0.89702515  0.11318959    -0.81330
O888        O  0.15598587  0.98071312  0.08402045    -0.81350
O889        O  0.08939517  0.97904133  0.16049646    -0.81360
O890        O  0.06491203  0.89613763  0.05192594    -0.81300
O891        O  0.11648976  0.99087121  0.11555336    -0.81420
O892        O  0.03899321  0.85699383  0.08387611    -0.81340
O893        O  0.11662230  0.95029122  0.05219022    -0.81330
O894        O  0.03771653  0.92545631  0.15837589    -0.81360
C895        C  0.01926196  0.91131542  0.13525554     1.08360
C896        C  0.14201609  0.97522765  0.05647914     1.08250
C897        C  0.10120554  0.99684980  0.13666108     1.08390
C898        C  0.04303855  0.86886099  0.05576542     1.08260
O899        O  0.08276645  0.86926228  0.13613491    -0.81330
O900        O  0.15913689  0.99260669  0.15842007    -0.81400
O901        O  0.06281102  0.89124961  0.18184677    -0.81340
O902        O  0.14883596  0.92541133  0.08126993    -0.81320
O903        O  0.14901704  0.93622631  0.13405753    -0.81370
O904        O  0.02356511  0.85418005  0.15297657    -0.81340
O905        O  0.09518807  0.86853719  0.08373387    -0.81300
O906        O  0.12263845  0.94912965  0.18085796    -0.81370
Co907      Co  0.05541685  0.88496777  0.12559084     1.51530
Co908      Co  0.13050712  0.96202652  0.12632570     1.51690
Co909      Co  0.07988945  0.93513643  0.16472563     1.51570
Co910      Co  0.10521520  0.91102628  0.07046560     1.51470
O911        O  0.09044210  0.92556713  0.11256428    -1.43260
C912        C  0.09138666  0.85787159  0.11248233     1.08290
C913        C  0.14537250  0.97733809  0.18440995     1.08380
C914        C  0.03446769  0.86794241  0.18095954     1.08320
C915        C  0.16080638  0.92951881  0.10932281     1.08290
O916        O  0.18822159  0.65726049  0.34293382    -0.81330
O917        O  0.13833219  0.52415431  0.37109692    -0.81350
O918        O  0.17172892  0.56235462  0.30696101    -0.81360
O919        O  0.12068415  0.58846156  0.41477833    -0.81300
O920        O  0.18883265  0.54003303  0.33766320    -0.81420
O921        O  0.13842306  0.61971384  0.37435336    -0.81340
O922        O  0.12162261  0.53622985  0.41570427    -0.81330
O923        O  0.17081066  0.61549861  0.31041657    -0.81360
C924        C  0.17800093  0.64340131  0.31464497     1.08360
C925        C  0.11732888  0.51648568  0.39271091     1.08250
C926        C  0.17746045  0.54121519  0.31063792     1.08390
C927        C  0.11643400  0.60298758  0.39334372     1.08260
O928        O  0.18276358  0.66313361  0.41644456    -0.81330
O929        O  0.22582479  0.58940618  0.38751971    -0.81400
O930        O  0.23275228  0.64869965  0.33727851    -0.81340
O931        O  0.18651915  0.56990498  0.43628489    -0.81320
O932        O  0.18508227  0.53018262  0.40808302    -0.81370
O933        O  0.22609568  0.64885761  0.39094302    -0.81340
O934        O  0.18573595  0.62515252  0.43609525    -0.81300
O935        O  0.23282695  0.59502675  0.33414364    -0.81370
Co936      Co  0.18122853  0.63212454  0.38401403     1.51530
Co937      Co  0.18142832  0.55817678  0.38085141     1.51690
Co938      Co  0.19984579  0.60425048  0.32506483     1.51570
Co939      Co  0.15550209  0.58099741  0.42051428     1.51470
O940        O  0.17323192  0.59032233  0.36837421    -1.43260
C941        C  0.18095011  0.64761284  0.44135769     1.08290
C942        C  0.24302208  0.59473090  0.36209739     1.08380
C943        C  0.24328947  0.66041511  0.36587237     1.08320
C944        C  0.18435337  0.54324642  0.43595215     1.08290
O945        O  0.03489826  0.61708956  0.15996591    -0.81330
O946        O  0.12237802  0.67033390  0.07107159    -0.81350
O947        O  0.03068413  0.67910223  0.09388861    -0.81360
O948        O  0.10641039  0.63050349  0.11582238    -0.81300
O949        O  0.06544186  0.67149258  0.06683765    -0.81420
O950        O  0.08926518  0.61832044  0.16673360    -0.81340
O951        O  0.16329829  0.67995500  0.09995673    -0.81330
O952        O  0.03871715  0.63155640  0.10886235    -0.81360
C953        C  0.02496849  0.61126129  0.13041480     1.08360
C954        C  0.14980835  0.67456596  0.07215924     1.08250
C955        C  0.04156372  0.67447156  0.06658129     1.08390
C956        C  0.09732852  0.61142220  0.13881760     1.08260
O957        O  0.11522167  0.67721018  0.20394922    -0.81330
O958        O  0.09930612  0.73367894  0.09584447    -0.81400
O959        O  0.02684128  0.66450372  0.16001718    -0.81340
O960        O  0.15641646  0.71957380  0.14544034    -0.81320
O961        O  0.15032516  0.73265132  0.09816969    -0.81370
O962        O  0.06177756  0.67691131  0.19695445    -0.81340
O963        O  0.14505757  0.66806988  0.17025886    -0.81300
O964        O  0.07201182  0.71983406  0.14048647    -0.81370
Co965      Co  0.07649153  0.64957503  0.17929636     1.51530
Co966      Co  0.10731807  0.69880073  0.08932079     1.51690
Co967      Co  0.05767958  0.67669120  0.12306848     1.51570
Co968      Co  0.13035119  0.67622421  0.12856906     1.51470
O969        O  0.09415800  0.67881430  0.13988068    -1.43260
C970        C  0.13841519  0.67416614  0.19954545     1.08290
C971        C  0.08732785  0.74059808  0.12019223     1.08380
C972        C  0.03449794  0.66851317  0.19001560     1.08320
C973        C  0.16494544  0.73994291  0.12467604     1.08290
O974        O  0.41098684  0.93693437  0.16359697    -0.81330
O975        O  0.35208416  0.95123445  0.06303245    -0.81350
O976        O  0.32867450  0.85863663  0.09498126    -0.81360
O977        O  0.38375303  0.99708191  0.13560810    -0.81300
O978        O  0.34847226  0.89884096  0.06553571    -0.81420
O979        O  0.40255063  0.96822300  0.11664952    -0.81340
O980        O  0.33786845  0.98010530  0.09108656    -0.81330
O981        O  0.38492487  0.90213084  0.12345912    -0.81360
C982        C  0.40920727  0.91706928  0.14165782     1.08360
C983        C  0.34998717  0.97477720  0.06522440     1.08250
C984        C  0.33851955  0.87054342  0.06686907     1.08390
C985        C  0.40622062  0.99492401  0.12272463     1.08260
O986        O  0.38276478  0.96730648  0.18410094    -0.81330
O987        O  0.28487122  0.87054527  0.09417299    -0.81400
O988        O  0.34044705  0.85857580  0.16304923    -0.81340
O989        O  0.29170216  0.94005987  0.13876137    -0.81320
O990        O  0.28838364  0.92555011  0.08584991    -0.81370
O991        O  0.35266316  0.90427105  0.18619683    -0.81340
O992        O  0.33588522  0.95776912  0.18489690    -0.81300
O993        O  0.29518221  0.87037879  0.14706368    -0.81370
Co994      Co  0.37597434  0.93533208  0.14820785     1.51530
Co995      Co  0.31975781  0.91229877  0.07915352     1.51690
Co996      Co  0.33915110  0.88821719  0.13632708     1.51570
Co997      Co  0.33711938  0.96593058  0.13736837     1.51470
O998        O  0.33907858  0.92692577  0.12371965    -1.43260
C999        C  0.36125075  0.96901399  0.19924318     1.08290
C1000       C  0.27647124  0.85956939  0.12315562     1.08380
C1001       C  0.34693637  0.87627683  0.18911365     1.08320
C1002       C  0.27685780  0.93136447  0.11198501     1.08290
C1003       C  0.49421717  0.55337720  0.12114118    -0.10340
C1004       C  0.49534452  0.58179101  0.12254298     0.05850
C1005       C  0.46734850  0.58125813  0.11983035    -0.04110
C1006       C  0.43897281  0.55281435  0.11813077    -0.08560
C1007       C  0.43742511  0.52408913  0.11845137     0.04970
C1008       C  0.46591917  0.52481997  0.11849862    -0.03590
Br1009     Br  0.46883558  0.48838234  0.11653096    -0.03280
H1010       H  0.01552179  0.55337800  0.12265288     0.08880
H1011       H  0.41783201  0.55327252  0.11752026     0.06900
Br1012     Br  0.46600808  0.61860291  0.12046199    -0.03710
C1013       C  0.24440710  0.80804452  0.14762237    -0.10340
C1014       C  0.24612891  0.83103151  0.12785767     0.05850
C1015       C  0.21992009  0.82448704  0.11013959    -0.04110
C1016       C  0.19317816  0.79521797  0.11149495    -0.08560
C1017       C  0.19203569  0.77157341  0.12943100     0.04970
C1018       C  0.21786094  0.77829931  0.14815671    -0.03590
Br1019     Br  0.22004965  0.74732452  0.17150086    -0.03280
H1020       H  0.26456800  0.81250782  0.16093081     0.08880
H1021       H  0.17347601  0.79052744  0.09717229     0.06900
Br1022     Br  0.21901113  0.85377259  0.08278128    -0.03710
C1023       C  0.17113690  0.65795788  0.22537219    -0.10340
C1024       C  0.15521349  0.67391042  0.22893851     0.05850
C1025       C  0.15246764  0.68531246  0.26126940    -0.04110
C1026       C  0.16219453  0.67735960  0.28927768    -0.08560
C1027       C  0.17500353  0.65845427  0.28564011     0.04970
C1028       C  0.18101784  0.65028810  0.25309765    -0.03590
Br1029     Br  0.20179824  0.62754643  0.24455098    -0.03280
H1030       H  0.17438049  0.64967491  0.20095726     0.08880
H1031       H  0.15813296  0.68449297  0.31396027     0.06900
Br1032     Br  0.13558217  0.71161611  0.26907532    -0.03710
C1033       C  0.15003905  0.63804854  0.02990334    -0.10340
C1034       C  0.16272578  0.66884483  0.04139053     0.05850
C1035       C  0.18221959  0.69312543  0.02032079    -0.04110
C1036       C  0.18784358  0.68611060  0.98746928    -0.08560
C1037       C  0.17491209  0.65501673  0.47582122     0.04970
C1038       C  0.15657302  0.63085708  0.49793286    -0.03590
Br1039     Br  0.13780138  0.58718532  0.48665854    -0.03280
H1040       H  0.13402204  0.61934023  0.04560054     0.08880
H1041       H  0.20241093  0.70486907  0.47115435     0.06900
Br1042     Br  0.20052204  0.73593323  0.03517750    -0.03710
C1043       C  0.18574951  0.51737645  0.02288358    -0.10340
C1044       C  0.15390700  0.99603370  0.02784861     0.05850
C1045       C  0.13320589  0.99169966  0.00243301    -0.04110
C1046       C  0.14454557  0.50585887  0.47237594    -0.08560
C1047       C  0.17600251  0.52645151  0.46701162     0.04970
C1048       C  0.19676879  0.53319814  0.99288650    -0.03590
Br1049     Br  0.24000015  0.56319879  0.98788868    -0.03280
H1050       H  0.20202651  0.52133043  0.04191275     0.08880
H1051       H  0.12823850  0.50137490  0.45326846     0.06900
Br1052     Br  0.08860997  0.96813473  0.00651214    -0.03710
C1053       C  0.13931069  0.50139787  0.27342778    -0.10340
C1054       C  0.17022700  0.51873742  0.28274350     0.05850
C1055       C  0.19336644  0.52089354  0.26031186    -0.04110
C1056       C  0.18531164  0.00738549  0.22798985    -0.08560
C1057       C  0.15418337  0.99069444  0.21847538     0.04970
C1058       C  0.13097645  0.48661396  0.24219284    -0.03590
Br1059     Br  0.08737747  0.46347400  0.23349793    -0.03280
H1060       H  0.12152386  0.50072697  0.29005144     0.08880
H1061       H  0.20324184  0.01004605  0.21033168     0.06900
Br1062     Br  0.23615474  0.54395495  0.27212839    -0.03710
C1063       C  0.12300630  0.55212311  0.12041579    -0.10340
C1064       C  0.09859734  0.52521630  0.13472316     0.05850
C1065       C  0.07326349  0.52693778  0.14864979    -0.04110
C1066       C  0.07295159  0.55469374  0.14847203    -0.08560
C1067       C  0.09751231  0.58167685  0.13468993     0.04970
C1068       C  0.12300163  0.58016031  0.12098117    -0.03590
Br1069     Br  0.16062681  0.61640859  0.10757496    -0.03280
H1070       H  0.14313019  0.55191352  0.11037966     0.08880
H1071       H  0.05347218  0.55533670  0.15986582     0.06900
Br1072     Br  0.03786515  0.99241890  0.16815152    -0.03710
C1073       C  0.11117801  0.79437873  0.10008096    -0.10340
C1074       C  0.09042055  0.77195025  0.12241052     0.05850
C1075       C  0.07202814  0.77960068  0.14364518    -0.04110
C1076       C  0.07396691  0.80835961  0.14118060    -0.08560
C1077       C  0.09355889  0.82990380  0.11749695     0.04970
C1078       C  0.11279517  0.82278804  0.09736616    -0.03590
Br1079     Br  0.14198160  0.85072713  0.06555092    -0.03280
H1080       H  0.12585403  0.78952500  0.08368661     0.08880
H1081       H  0.05888076  0.81322526  0.15687350     0.06900
Br1082     Br  0.04223217  0.75139713  0.17491709    -0.03710
C1083       C  0.20509491  0.92861281  0.08139326    -0.10340
C1084       C  0.18984123  0.92888375  0.11142753     0.05850
C1085       C  0.20352758  0.92976294  0.14165037    -0.04110
C1086       C  0.23143320  0.93004404  0.14108114    -0.08560
C1087       C  0.24665586  0.92984107  0.11094023     0.04970
C1088       C  0.23306399  0.92933254  0.08076831    -0.03590
Br1089     Br  0.25136362  0.93089401  0.03739563    -0.03280
H1090       H  0.19552900  0.92845899  0.05779563     0.08880
H1091       H  0.24136352  0.93057951  0.16457683     0.06900
Br1092     Br  0.18587801  0.93068536  0.18465012    -0.03710
C1093       C  0.47354960  0.90531665  0.10684614    -0.10340
C1094       C  0.48979016  0.91045557  0.13627212     0.05850
C1095       C  0.47743933  0.91482563  0.16700510    -0.04110
C1096       C  0.45027495  0.91500542  0.16748764    -0.08560
C1097       C  0.43500538  0.91176514  0.13816039     0.04970
C1098       C  0.44629856  0.90620523  0.10751874    -0.03590
Br1099     Br  0.42743348  0.90264377  0.06594251    -0.03280
H1100       H  0.48266109  0.90180729  0.08321123     0.08880
H1101       H  0.44134649  0.91856952  0.19126226     0.06900
Br1102     Br  0.99553796  0.92110051  0.21009885    -0.03710
C1103       C  0.02224488  0.66215605  0.47525379    -0.10340
C1104       C  0.49206051  0.65640495  0.47666870     0.05850
C1105       C  0.47923782  0.65958287  0.00709380    -0.04110
C1106       C  0.99597105  0.66619061  0.03620596    -0.08560
C1107       C  0.02548467  0.66964074  0.03520330     0.04970
C1108       C  0.03908715  0.66871547  0.00396894    -0.03590
Br1109     Br  0.08013545  0.67562792  0.99748256    -0.03280
H1110       H  0.03229755  0.65989066  0.45166895     0.08880
H1111       H  0.98558666  0.66807399  0.05966316     0.06900
Br1112     Br  0.44000193  0.65672379  0.00953799    -0.03710
C1113       C  0.98873953  0.62820739  0.26520620    -0.10340
C1114       C  0.46640655  0.63672665  0.26731967     0.05850
C1115       C  0.46517613  0.65445903  0.24236167    -0.04110
C1116       C  0.98738081  0.66449585  0.21656260    -0.08560
C1117       C  0.01093784  0.65756809  0.21619823     0.04970
C1118       C  0.01092196  0.63844470  0.24027222    -0.03590
Br1119     Br  0.03997436  0.62465762  0.24103212    -0.03280
H1120       H  0.98996733  0.61452718  0.28417155     0.08880
H1121       H  0.48699480  0.67864469  0.19756687     0.06900
Br1122     Br  0.43600236  0.66796436  0.24399572    -0.03710
C1123       C  0.38452640  0.00695057  0.48164826    -0.10340
C1124       C  0.38593666  0.53531591  0.48411804     0.05850
C1125       C  0.37393072  0.54338706  0.01244067    -0.04110
C1126       C  0.36223750  0.52344913  0.03896706    -0.08560
C1127       C  0.36135073  0.99503883  0.03679554     0.04970
C1128       C  0.37182918  0.98645131  0.50700485    -0.03590
Br1129     Br  0.36925919  0.94722730  0.49680684    -0.03280
H1130       H  0.39266283  0.00022701  0.45915392     0.08880
H1131       H  0.35386248  0.53016584  0.06119813     0.06900
Br1132     Br  0.37353687  0.58122138  0.01633308    -0.03710
C1133       C  0.39773980  0.00393588  0.24269325    -0.10340
C1134       C  0.36706021  0.98633354  0.23190886     0.05850
C1135       C  0.34378606  0.48768482  0.25154302    -0.04110
C1136       C  0.35171228  0.50608026  0.28118229    -0.08560
C1137       C  0.38262905  0.52440615  0.29127021     0.04970
C1138       C  0.40572306  0.52321692  0.27138458    -0.03590
Br1139     Br  0.44887068  0.54750492  0.28074705    -0.03280
H1140       H  0.41612037  0.00371303  0.22802877     0.08880
H1141       H  0.33365653  0.50704023  0.29572026     0.06900
Br1142     Br  0.30096740  0.46624685  0.23942537    -0.03710
C1143       C  0.03158335  0.57782679  0.40507859    -0.10340
C1144       C  0.03106605  0.60316596  0.39334794     0.05850
C1145       C  0.05876440  0.62837425  0.38090220    -0.04110
C1146       C  0.08614887  0.62757029  0.38021764    -0.08560
C1147       C  0.08652736  0.60190305  0.39184376     0.04970
C1148       C  0.05849713  0.57663469  0.40360971    -0.03590
Br1149     Br  0.05418139  0.53866506  0.41600103    -0.03280
H1150       H  0.01050387  0.55821099  0.41469539     0.08880
H1151       H  0.10741190  0.64754155  0.37152046     0.06900
Br1152     Br  0.06119449  0.66562114  0.36785943    -0.03710
C1153       C  0.32159831  0.60464886  0.34050085    -0.10340
C1154       C  0.32391195  0.58765438  0.36546891     0.05850
C1155       C  0.30040698  0.57519121  0.39046598    -0.04110
C1156       C  0.27536906  0.57944286  0.38962478    -0.08560
C1157       C  0.27253402  0.59555028  0.36418019     0.04970
C1158       C  0.29629934  0.60877030  0.33970734    -0.03590
Br1159     Br  0.29625761  0.63358898  0.30531348    -0.03280
H1160       H  0.33969340  0.61507026  0.32166408     0.08880
H1161       H  0.25722571  0.56878694  0.40837410     0.06900
Br1162     Br  0.29916208  0.55025828  0.42566586    -0.03710
C1163       C  0.47490320  0.83315655  0.99908398    -0.10340
C1164       C  0.49028287  0.84213747  0.46804881     0.05850
C1165       C  0.02224196  0.85396873  0.46599121    -0.04110
C1166       C  0.03851098  0.85902955  0.49512653    -0.08560
C1167       C  0.02352467  0.85278719  0.02659095     0.04970
C1168       C  0.49119315  0.83839071  0.02829664    -0.03590
Br1169     Br  0.46866584  0.82899209  0.06983792    -0.03280
H1170       H  0.45017318  0.82315205  0.00082511     0.08880
H1171       H  0.06348624  0.87022141  0.49345466     0.06900
Br1172     Br  0.04539000  0.86747660  0.42502197    -0.03710
C1173       C  0.02926244  0.86372609  0.24251970    -0.10340
C1174       C  0.01500323  0.85880872  0.21183230     0.05850
C1175       C  0.48317608  0.84901917  0.21188593    -0.04110
C1176       C  0.46786111  0.84869311  0.24199249    -0.08560
C1177       C  0.48281378  0.85555260  0.27247854     0.04970
C1178       C  0.01296089  0.86056242  0.27254111    -0.03590
Br1179     Br  0.03203027  0.86035998  0.31236582    -0.03280
H1180       H  0.05312418  0.86967163  0.24316331     0.08880
H1181       H  0.44424120  0.84325873  0.24150560     0.06900
Br1182     Br  0.45943832  0.83744741  0.17204453    -0.03710
C1183       C  0.44973888  0.97323807  0.35632261    -0.10340
C1184       C  0.42456991  0.94477897  0.36666570     0.05850
C1185       C  0.39783500  0.94415425  0.37946186    -0.04110
C1186       C  0.39704765  0.97157491  0.38213217    -0.08560
C1187       C  0.42239888  0.00034907  0.37228139     0.04970
C1188       C  0.44899092  0.00072358  0.35895293    -0.03590
Br1189     Br  0.48532241  0.53704867  0.34328568    -0.03280
H1190       H  0.47038594  0.97420753  0.34608283     0.08880
H1191       H  0.37618720  0.97017541  0.39226805     0.06900
Br1192     Br  0.36075593  0.90665360  0.39217917    -0.03710
C1193       C  0.43640541  0.73885292  0.41216174    -0.10460
C1194       C  0.41726982  0.74209120  0.39075569     0.05850
C1195       C  0.40105348  0.71902689  0.36581431    -0.04110
C1196       C  0.40489793  0.69358605  0.36199547    -0.08560
C1197       C  0.42566658  0.69128085  0.38191527     0.04970
C1198       C  0.44115130  0.71394850  0.40764127    -0.03590
Br1199     Br  0.46933664  0.71281026  0.43704420    -0.03280
H1200       H  0.44931060  0.75685142  0.43111186     0.08880
H1201       H  0.39264719  0.67626608  0.34225194     0.06900
Br1202     Br  0.37434831  0.72168732  0.33555724    -0.03710
C1203       C  0.05440391  0.93302894  0.36683519    -0.10340
C1204       C  0.02931261  0.92833920  0.38746312     0.05850
C1205       C  0.03480755  0.95120741  0.41275801    -0.04110
C1206       C  0.06403291  0.97869950  0.41512281    -0.08560
C1207       C  0.08808852  0.98495427  0.39188017     0.04970
C1208       C  0.08353541  0.96041910  0.36921463    -0.03590
Br1209     Br  0.11642530  0.96071840  0.34335195    -0.03280
H1210       H  0.05137167  0.91543484  0.34817258     0.08880
H1211       H  0.06787877  0.49533151  0.43541712     0.06900
Br1212     Br  0.50382984  0.94580679  0.44554753    -0.03710
C1213       C  0.27929844  0.71424348  0.34884095    -0.10340
C1214       C  0.27340270  0.69005613  0.36920694     0.05850
C1215       C  0.29524639  0.69565420  0.39334740    -0.04110
C1216       C  0.32217577  0.72522144  0.39697117    -0.08560
C1217       C  0.32789806  0.74974276  0.37691456     0.04970
C1218       C  0.30581736  0.74386188  0.35270406    -0.03590
Br1219     Br  0.30827623  0.77552063  0.32615307    -0.03280
H1220       H  0.26237564  0.71045623  0.33065999     0.08880
H1221       H  0.33882437  0.72899833  0.41547845     0.06900
Br1222     Br  0.29003201  0.66344374  0.42093454    -0.03710
C1223       C  0.33758509  0.85387179  0.47423620    -0.10340
C1224       C  0.35898606  0.84413296  0.47120223     0.05850
C1225       C  0.36635547  0.83489425  0.00040964    -0.04110
C1226       C  0.35641375  0.84005692  0.03197081    -0.08560
C1227       C  0.33832405  0.85359551  0.03521198     0.04970
C1228       C  0.32700411  0.85825028  0.50586621    -0.03590
Br1229     Br  0.29759647  0.87152027  0.50803215    -0.03280
H1230       H  0.33038252  0.85971774  0.45228183     0.08880
H1231       H  0.36467253  0.83551191  0.05404221     0.06900
Br1232     Br  0.38992947  0.81493423  0.99903575    -0.03710
C1233       C  0.35964160  0.84484663  0.22398863    -0.10340
C1234       C  0.34931505  0.86587381  0.22229841     0.05850
C1235       C  0.34486067  0.87904141  0.25251530    -0.04110
C1236       C  0.35296215  0.87310233  0.28288688    -0.08560
C1237       C  0.36546032  0.85400485  0.28422426     0.04970
C1238       C  0.36752232  0.83877036  0.25454878    -0.03590
Br1239     Br  0.37931022  0.80825874  0.25484067    -0.03280
H1240       H  0.36265564  0.83388145  0.20134206     0.08880
H1241       H  0.35046486  0.88440931  0.30555528     0.06900
Br1242     Br  0.32715788  0.90479149  0.25438725    -0.03710
O1243       O  0.44460873  0.91532751  0.83970145    -0.81330
O1244       O  0.45291351  0.84880896  0.94406062    -0.81350
O1245       O  0.36376807  0.83814258  0.91063829    -0.81360
O1246       O  0.49585128  0.87544163  0.86764257    -0.81300
O1247       O  0.40385303  0.85448082  0.94029487    -0.81420
O1248       O  0.47400418  0.90197387  0.88560711    -0.81340
O1249       O  0.47445953  0.82873260  0.91124056    -0.81330
O1250       O  0.41016670  0.89237632  0.87999891    -0.81360
C1251       C  0.42634400  0.91623935  0.86170514     1.08360
C1252       C  0.47246151  0.84067175  0.93929474     1.08250
C1253       C  0.37607433  0.84647228  0.93910760     1.08390
C1254       C  0.49803041  0.90021422  0.88099322     1.08260
O1255       O  0.46853696  0.87917809  0.81798746    -0.81330
O1256       O  0.36779589  0.78967677  0.91145803    -0.81400
O1257       O  0.36226944  0.84860246  0.84319199    -0.81340
O1258       O  0.42743451  0.78644564  0.86437208    -0.81320
O1259       O  0.41825358  0.78540962  0.91837040    -0.81370
O1260       O  0.40510209  0.85592500  0.81777043    -0.81340
O1261       O  0.45059372  0.82973046  0.81849616    -0.81300
O1262       O  0.36820243  0.79932152  0.85853053    -0.81370
Co1263     Co  0.43904839  0.87781710  0.85478385     1.51530
Co1264     Co  0.41164587  0.82137023  0.92634723     1.51690
Co1265     Co  0.39081194  0.84461118  0.86857943     1.51570
Co1266     Co  0.45977467  0.83048981  0.86573134     1.51470
O1267       O  0.42683935  0.84039248  0.88130203    -1.43260
C1268       C  0.46600341  0.85478010  0.80390914     1.08290
C1269       C  0.35631794  0.78101570  0.88234537     1.08380
C1270       C  0.37785317  0.85240489  0.81641421     1.08320
C1271       C  0.41955373  0.77218280  0.89102355     1.08290
O1272       O  0.42100856  0.62307608  0.80062841    -0.81330
O1273       O  0.44266490  0.55591631  0.87364117    -0.81350
O1274       O  0.99225853  0.61261128  0.87298006    -0.81360
O1275       O  0.37005379  0.54018681  0.84400902    -0.81300
O1276       O  0.48425569  0.59039805  0.92156334    -0.81420
O1277       O  0.41562703  0.57091680  0.82289785    -0.81340
O1278       O  0.39549428  0.52569182  0.89170506    -0.81330
O1279       O  0.46383281  0.63137490  0.82460761    -0.81360
C1280       C  0.44917250  0.63063665  0.79879336     1.08360
C1281       C  0.42013680  0.52875591  0.87848319     1.08250
C1282       C  0.00165786  0.60287561  0.89645785     1.08390
C1283       C  0.39008126  0.54575277  0.82108213     1.08260
O1284       O  0.36826425  0.58808536  0.84016668    -0.81330
O1285       O  0.45067285  0.61591983  0.94665418    -0.81400
O1286       O  0.45648368  0.66815986  0.87887794    -0.81340
O1287       O  0.38314454  0.56291044  0.94087637    -0.81320
O1288       O  0.42313481  0.55729751  0.94170262    -0.81370
O1289       O  0.40954731  0.64066916  0.86175485    -0.81340
O1290       O  0.35839397  0.57821288  0.89278807    -0.81300
O1291       O  0.48574262  0.65341587  0.91925220    -0.81370
Co1292     Co  0.41453245  0.60690384  0.84351176     1.51530
Co1293     Co  0.44803709  0.58847499  0.90825816     1.51690
Co1294     Co  0.46803530  0.63593581  0.87504246     1.51570
Co1295     Co  0.37943760  0.55486586  0.89230290     1.51470
O1296       O  0.42044735  0.59718922  0.88746101    -1.43260
C1297       C  0.35131705  0.58432421  0.86596634     1.08290
C1298       C  0.47407183  0.64239820  0.94663255     1.08380
C1299       C  0.43082933  0.66542475  0.87431412     1.08320
C1300       C  0.39873451  0.55424944  0.95531259     1.08290
O1301       O  0.02584183  0.89702571  0.61318915    -0.81330
O1302       O  0.15598541  0.98071386  0.58402104    -0.81350
O1303       O  0.08939415  0.97904162  0.66049634    -0.81360
O1304       O  0.06491215  0.89613849  0.55192470    -0.81300
O1305       O  0.11648953  0.99087217  0.61555382    -0.81420
O1306       O  0.03899313  0.85699487  0.58387515    -0.81340
O1307       O  0.11662227  0.95029215  0.55219006    -0.81330
O1308       O  0.03771603  0.92545624  0.65837583    -0.81360
C1309       C  0.01926150  0.91131554  0.63525541     1.08360
C1310       C  0.14201569  0.97522879  0.55647981     1.08250
C1311       C  0.10120490  0.99685043  0.63666131     1.08390
C1312       C  0.04303829  0.86886205  0.55576447     1.08260
O1313       O  0.08276690  0.86926351  0.63613379    -0.81330
O1314       O  0.15913700  0.99260758  0.65841960    -0.81400
O1315       O  0.06281166  0.89125023  0.68184581    -0.81340
O1316       O  0.14883583  0.92541233  0.58126995    -0.81320
O1317       O  0.14901635  0.93622673  0.63405768    -0.81370
O1318       O  0.02356560  0.85418062  0.65297572    -0.81340
O1319       O  0.09518798  0.86853806  0.58373273    -0.81300
O1320       O  0.12263843  0.94913100  0.68085831    -0.81370
Co1321     Co  0.05541693  0.88496862  0.62559003     1.51530
Co1322     Co  0.13050662  0.96202719  0.62632602     1.51690
Co1323     Co  0.07988924  0.93513702  0.66472530     1.51570
Co1324     Co  0.10521518  0.91102723  0.57046503     1.51470
O1325       O  0.09044188  0.92556807  0.61256371    -1.43260
C1326       C  0.09138683  0.85787265  0.61248119     1.08290
C1327       C  0.14537286  0.97733937  0.68440972     1.08380
C1328       C  0.03446847  0.86794280  0.68095867     1.08320
C1329       C  0.16080592  0.92951945  0.60932297     1.08290
O1330       O  0.18822481  0.65726159  0.84293162    -0.81330
O1331       O  0.13833598  0.52415544  0.87109935    -0.81350
O1332       O  0.17173222  0.56235474  0.80696128    -0.81360
O1333       O  0.12068714  0.58846500  0.91477697    -0.81300
O1334       O  0.18883545  0.54003371  0.83766528    -0.81420
O1335       O  0.13842642  0.61971630  0.87435117    -0.81340
O1336       O  0.12162491  0.53623334  0.91570397    -0.81330
O1337       O  0.17081438  0.61549939  0.81041470    -0.81360
C1338       C  0.17800384  0.64340192  0.81464303     1.08360
C1339       C  0.11733251  0.51648766  0.89271293     1.08250
C1340       C  0.17746315  0.54121505  0.81063957     1.08390
C1341       C  0.11643729  0.60299063  0.89334169     1.08260
O1342       O  0.18276687  0.66313643  0.91644242    -0.81330
O1343       O  0.22582786  0.58940858  0.88752108    -0.81400
O1344       O  0.23275555  0.64870052  0.83727750    -0.81340
O1345       O  0.18652091  0.56990792  0.93628564    -0.81320
O1346       O  0.18508558  0.53018528  0.90808655    -0.81370
O1347       O  0.22609870  0.64885941  0.89094193    -0.81340
O1348       O  0.18573894  0.62515556  0.93609384    -0.81300
O1349       O  0.23282997  0.59502738  0.83414477    -0.81370
Co1350     Co  0.18123168  0.63212659  0.88401252     1.51530
Co1351     Co  0.18143161  0.55817872  0.88085305     1.51690
Co1352     Co  0.19984905  0.60425112  0.82506453     1.51570
Co1353     Co  0.15550456  0.58100046  0.92051380     1.51470
O1354       O  0.17323479  0.59032383  0.86837389    -1.43260
C1355       C  0.18095323  0.64761594  0.94135589     1.08290
C1356       C  0.24302509  0.59473240  0.86209888     1.08380
C1357       C  0.24329267  0.66041638  0.86587130     1.08320
C1358       C  0.18435465  0.54324926  0.93595480     1.08290
O1359       O  0.03489598  0.61709147  0.65996803    -0.81330
O1360       O  0.12237514  0.67033264  0.57107259    -0.81350
O1361       O  0.03068246  0.67910310  0.59388907    -0.81360
O1362       O  0.10640683  0.63050294  0.61582452    -0.81300
O1363       O  0.06543966  0.67149243  0.56683835    -0.81420
O1364       O  0.08926227  0.61832135  0.66673620    -0.81340
O1365       O  0.16329523  0.67995334  0.59995777    -0.81330
O1366       O  0.03871507  0.63155732  0.60886402    -0.81360
C1367       C  0.02496611  0.61126278  0.63041694     1.08360
C1368       C  0.14980516  0.67456394  0.57216035     1.08250
C1369       C  0.04156152  0.67447142  0.56658188     1.08390
C1370       C  0.09732509  0.61142227  0.63882040     1.08260
O1371       O  0.11522032  0.67721149  0.70395060    -0.81330
O1372       O  0.09930489  0.73367926  0.59584413    -0.81400
O1373       O  0.02684007  0.66450594  0.66001818    -0.81340
O1374       O  0.15641491  0.71957376  0.64544016    -0.81320
O1375       O  0.15032355  0.73265086  0.59816931    -0.81370
O1376       O  0.06177664  0.67691405  0.69695526    -0.81340
O1377       O  0.14505507  0.66806994  0.67025967    -0.81300
O1378       O  0.07201084  0.71983534  0.64048636    -0.81370
Co1379     Co  0.07648966  0.64957674  0.67929807     1.51530
Co1380     Co  0.10731611  0.69880049  0.58932116     1.51690
Co1381     Co  0.05767799  0.67669230  0.62306918     1.51570
Co1382     Co  0.13034866  0.67622396  0.62856987     1.51470
O1383       O  0.09415621  0.67881517  0.63988163    -1.43260
C1384       C  0.13841334  0.67416661  0.69954637     1.08290
C1385       C  0.08732695  0.74059895  0.62019179     1.08380
C1386       C  0.03449693  0.66851569  0.69001657     1.08320
C1387       C  0.16494408  0.73994262  0.62467550     1.08290
O1388       O  0.41098661  0.93693475  0.66359708    -0.81330
O1389       O  0.35208377  0.95123495  0.56303321    -0.81350
O1390       O  0.32867370  0.85863671  0.59498199    -0.81360
O1391       O  0.38375238  0.99708212  0.63560899    -0.81300
O1392       O  0.34847174  0.89884121  0.56553666    -0.81420
O1393       O  0.40254996  0.96822334  0.61664998    -0.81340
O1394       O  0.33786779  0.98010557  0.59108729    -0.81330
O1395       O  0.38492414  0.90213078  0.62345975    -0.81360
C1396       C  0.40920675  0.91706940  0.64165812     1.08360
C1397       C  0.34998635  0.97477747  0.56522496     1.08250
C1398       C  0.33851869  0.87054357  0.56686984     1.08390
C1399       C  0.40621999  0.99492432  0.62272542     1.08260
O1400       O  0.38276417  0.96730642  0.68410148    -0.81330
O1401       O  0.28487064  0.87054556  0.59417356    -0.81400
O1402       O  0.34044652  0.85857578  0.66304996    -0.81340
O1403       O  0.29170149  0.94006006  0.63876212    -0.81320
O1404       O  0.28838311  0.92555042  0.58585062    -0.81370
O1405       O  0.35266317  0.90427120  0.68619743    -0.81340
O1406       O  0.33588470  0.95776949  0.68489784    -0.81300
O1407       O  0.29518130  0.87037847  0.64706426    -0.81370
Co1408     Co  0.37597390  0.93533226  0.64820829     1.51530
Co1409     Co  0.31975733  0.91229912  0.57915426     1.51690
Co1410     Co  0.33915033  0.88821713  0.63632786     1.51570
Co1411     Co  0.33711874  0.96593078  0.63736918     1.51470
O1412       O  0.33907787  0.92692584  0.62372052    -1.43260
C1413       C  0.36125026  0.96901396  0.69924400     1.08290
C1414       C  0.27647047  0.85956930  0.62315602     1.08380
C1415       C  0.34693659  0.87627705  0.68911427     1.08320
C1416       C  0.27685717  0.93136469  0.61198571     1.08290
C1417       C  0.49421427  0.55337880  0.62114444    -0.10340
C1418       C  0.49534200  0.58179275  0.62254569     0.05850
C1419       C  0.46734626  0.58126028  0.61983216    -0.04110
C1420       C  0.43897042  0.55281669  0.61813183    -0.08560
C1421       C  0.43742230  0.52409128  0.61845255     0.04970
C1422       C  0.46591618  0.52482181  0.61850108    -0.03590
Br1423     Br  0.46883242  0.48838415  0.61653400    -0.03280
H1424       H  0.01551858  0.55337928  0.62265616     0.08880
H1425       H  0.41782981  0.55327515  0.61752058     0.06900
Br1426     Br  0.46600639  0.61860535  0.62046355    -0.03710
C1427       C  0.24440596  0.80804408  0.64762214    -0.10340
C1428       C  0.24612805  0.83103125  0.62785753     0.05850
C1429       C  0.21991948  0.82448681  0.61013891    -0.04110
C1430       C  0.19317752  0.79521767  0.61149381    -0.08560
C1431       C  0.19203469  0.77157303  0.62943006     0.04970
C1432       C  0.21785976  0.77829884  0.64815610    -0.03590
Br1433     Br  0.22004811  0.74732389  0.67150035    -0.03280
H1434       H  0.26456666  0.81250728  0.66093090     0.08880
H1435       H  0.17347555  0.79052722  0.59717086     0.06900
Br1436     Br  0.21901083  0.85377258  0.58278065    -0.03710
C1437       C  0.17113527  0.65795759  0.72537116    -0.10340
C1438       C  0.15521196  0.67391021  0.72893883     0.05850
C1439       C  0.15246708  0.68531206  0.76127017    -0.04110
C1440       C  0.16219521  0.67735928  0.78927755    -0.08560
C1441       C  0.17500439  0.65845411  0.78563867     0.04970
C1442       C  0.18101732  0.65028780  0.75309569    -0.03590
Br1443     Br  0.20179758  0.62754622  0.74454695    -0.03280
H1444       H  0.17437812  0.64967470  0.70095585     0.08880
H1445       H  0.15813462  0.68449272  0.81396055     0.06900
Br1446     Br  0.13558155  0.71161548  0.76907788    -0.03710
C1447       C  0.15003499  0.63804571  0.52990469    -0.10340
C1448       C  0.16272233  0.66884212  0.54139186     0.05850
C1449       C  0.18221717  0.69312254  0.52032244    -0.04110
C1450       C  0.18784134  0.68610752  0.48747114    -0.08560
C1451       C  0.17491496  0.65501986  0.97581938     0.04970
C1452       C  0.15657664  0.63086012  0.99793125    -0.03590
Br1453     Br  0.13780519  0.58718837  0.98665706    -0.03280
H1454       H  0.13401737  0.61933754  0.54560170     0.08880
H1455       H  0.20241256  0.70487224  0.97115236     0.06900
Br1456     Br  0.20052072  0.73593043  0.53517921    -0.03710
C1457       C  0.18574374  0.51738197  0.52288675    -0.10340
C1458       C  0.15390620  0.99603555  0.52785021     0.05850
C1459       C  0.13320417  0.99170318  0.50243657    -0.04110
C1460       C  0.14454492  0.50587386  0.97238793    -0.08560
C1461       C  0.17600313  0.52645569  0.96701540     0.04970
C1462       C  0.19676459  0.53320347  0.49288963    -0.03590
Br1463     Br  0.23999366  0.56321613  0.48790045    -0.03280
H1464       H  0.20201880  0.52134435  0.54192188     0.08880
H1465       H  0.12823532  0.50139733  0.95328663     0.06900
Br1466     Br  0.08860846  0.96814130  0.50651934    -0.03710
C1467       C  0.13931222  0.50139232  0.77343371    -0.10340
C1468       C  0.17022946  0.51873624  0.78274590     0.05850
C1469       C  0.19336828  0.52089618  0.76031075    -0.04110
C1470       C  0.18531321  0.00738606  0.72798882    -0.08560
C1471       C  0.15418476  0.99069607  0.71847492     0.04970
C1472       C  0.13097663  0.48660878  0.74219845    -0.03590
Br1473     Br  0.08737697  0.46346596  0.73350649    -0.03280
H1474       H  0.12152561  0.50071857  0.79005994     0.08880
H1475       H  0.20324283  0.01004555  0.71033036     0.06900
Br1476     Br  0.23615791  0.54396400  0.77212195    -0.03710
C1477       C  0.12300231  0.55212275  0.62042016    -0.10340
C1478       C  0.09859411  0.52521665  0.63472936     0.05850
C1479       C  0.07326104  0.52693875  0.64865739    -0.04110
C1480       C  0.07294882  0.55469449  0.64847821    -0.08560
C1481       C  0.09750876  0.58167685  0.63469394     0.04970
C1482       C  0.12299763  0.58015984  0.62098465    -0.03590
Br1483     Br  0.16062248  0.61640743  0.60757656    -0.03280
H1484       H  0.14312574  0.55191276  0.61038312     0.08880
H1485       H  0.05346983  0.55533791  0.65987261     0.06900
Br1486     Br  0.03786431  0.99241927  0.66815167    -0.03710
C1487       C  0.11117758  0.79437944  0.60008008    -0.10340
C1488       C  0.09042000  0.77195119  0.62240974     0.05850
C1489       C  0.07202773  0.77960187  0.64364431    -0.04110
C1490       C  0.07396679  0.80836087  0.64117959    -0.08560
C1491       C  0.09355887  0.82990483  0.61749586     0.04970
C1492       C  0.11279499  0.82278884  0.59736511    -0.03590
Br1493     Br  0.14198148  0.85072773  0.56554978    -0.03280
H1494       H  0.12585348  0.78952546  0.58368582     0.08880
H1495       H  0.05888075  0.81322674  0.65687242     0.06900
Br1496     Br  0.04223145  0.75139859  0.67491622    -0.03710
C1497       C  0.20509446  0.92861327  0.58139367    -0.10340
C1498       C  0.18984068  0.92888421  0.61142786     0.05850
C1499       C  0.20352685  0.92976318  0.64165076    -0.04110
C1500       C  0.23143241  0.93004417  0.64108165    -0.08560
C1501       C  0.24665521  0.92984126  0.61094081     0.04970
C1502       C  0.23306348  0.92933285  0.58076884    -0.03590
Br1503     Br  0.25136325  0.93089439  0.53739623    -0.03280
H1504       H  0.19552870  0.92845958  0.55779599     0.08880
H1505       H  0.24136262  0.93057952  0.66457739     0.06900
Br1506     Br  0.18587707  0.93068546  0.68465042    -0.03710
C1507       C  0.47354878  0.90531637  0.60684616    -0.10340
C1508       C  0.48978951  0.91045538  0.63627204     0.05850
C1509       C  0.47743877  0.91482545  0.66700509    -0.04110
C1510       C  0.45027446  0.91500540  0.66748776    -0.08560
C1511       C  0.43500477  0.91176510  0.63816059     0.04970
C1512       C  0.44629772  0.90620493  0.60751892    -0.03590
Br1513     Br  0.42743219  0.90264293  0.56594282    -0.03280
H1514       H  0.48266015  0.90180694  0.58321120     0.08880
H1515       H  0.44134613  0.91856961  0.69126241     0.06900
Br1516     Br  0.99553754  0.92110030  0.71009890    -0.03710
C1517       C  0.02224810  0.66215860  0.97525307    -0.10340
C1518       C  0.49206385  0.65640793  0.97666805     0.05850
C1519       C  0.47923443  0.65957989  0.50709445    -0.04110
C1520       C  0.99596789  0.66618841  0.53620659    -0.08560
C1521       C  0.02548187  0.66963938  0.53520395     0.04970
C1522       C  0.03908420  0.66871372  0.50396962    -0.03590
Br1523     Br  0.08013284  0.67562708  0.49748318    -0.03280
H1524       H  0.03230068  0.65989317  0.95166819     0.08880
H1525       H  0.98558353  0.66807190  0.55966375     0.06900
Br1526     Br  0.43999813  0.65671992  0.50953867    -0.03710
C1527       C  0.98873760  0.62820563  0.76520491    -0.10340
C1528       C  0.46640514  0.63672561  0.76732008     0.05850
C1529       C  0.46517505  0.65445953  0.74236365    -0.04110
C1530       C  0.98737981  0.66449743  0.71656467    -0.08560
C1531       C  0.01093676  0.65756951  0.71619909     0.04970
C1532       C  0.01092052  0.63844459  0.74027145    -0.03590
Br1533     Br  0.03997351  0.62465822  0.74103044    -0.03280
H1534       H  0.98996507  0.61452419  0.78416902     0.08880
H1535       H  0.48699404  0.67864742  0.69757008     0.06900
Br1536     Br  0.43600173  0.66796550  0.74399999    -0.03710
C1537       C  0.38452975  0.00695133  0.98164903    -0.10340
C1538       C  0.38594143  0.53531709  0.98412029     0.05850
C1539       C  0.37392467  0.54338564  0.51243750    -0.04110
C1540       C  0.36223186  0.52344837  0.53896450    -0.08560
C1541       C  0.36134887  0.99503864  0.53679555     0.04970
C1542       C  0.37183101  0.98645144  0.00700488    -0.03590
Br1543     Br  0.36925875  0.94722648  0.99680585    -0.03280
H1544       H  0.39266607  0.00022770  0.95915465     0.08880
H1545       H  0.35385588  0.53016496  0.56119486     0.06900
Br1546     Br  0.37352848  0.58121880  0.51632785    -0.03710
C1547       C  0.39773981  0.00393504  0.74269397    -0.10340
C1548       C  0.36706009  0.98633314  0.73190996     0.05850
C1549       C  0.34378488  0.48769021  0.75154291    -0.04110
C1550       C  0.35171187  0.50608434  0.78118309    -0.08560
C1551       C  0.38262863  0.52440732  0.79127179     0.04970
C1552       C  0.40572174  0.52321686  0.77138588    -0.03590
Br1553     Br  0.44886929  0.54750176  0.78074907    -0.03280
H1554       H  0.41612011  0.00371211  0.72802902     0.08880
H1555       H  0.33365693  0.50704573  0.79572120     0.06900
Br1556     Br  0.30096680  0.46625675  0.73942384    -0.03710
C1557       C  0.03158666  0.57782849  0.90507545    -0.10340
C1558       C  0.03106948  0.60316868  0.89334793     0.05850
C1559       C  0.05876791  0.62837822  0.88090405    -0.04110
C1560       C  0.08615262  0.62757464  0.88021869    -0.08560
C1561       C  0.08653084  0.60190620  0.89184144     0.04970
C1562       C  0.05850036  0.57663639  0.90360453    -0.03590
Br1563     Br  0.05418407  0.53866429  0.91598681    -0.03280
H1564       H  0.01050702  0.55821167  0.91469054     0.08880
H1565       H  0.10741587  0.64754686  0.87152347     0.06900
Br1566     Br  0.06119746  0.66562582  0.86786490    -0.03710
C1567       C  0.32160114  0.60464958  0.84050409    -0.10340
C1568       C  0.32391415  0.58765487  0.86547238     0.05850
C1569       C  0.30040904  0.57519213  0.89046924    -0.04110
C1570       C  0.27537131  0.57944404  0.88962737    -0.08560
C1571       C  0.27253683  0.59555155  0.86418246     0.04970
C1572       C  0.29630249  0.60877144  0.83971002    -0.03590
Br1573     Br  0.29626161  0.63359046  0.80531604    -0.03280
H1574       H  0.33969643  0.61507077  0.82166749     0.08880
H1575       H  0.25722762  0.56878818  0.90837630     0.06900
Br1576     Br  0.29916380  0.55025941  0.92566949    -0.03710
C1577       C  0.47490150  0.83315749  0.49908450    -0.10340
C1578       C  0.49028535  0.84213737  0.96804879     0.05850
C1579       C  0.02224431  0.85396858  0.96599185    -0.04110
C1580       C  0.03851266  0.85902878  0.99512752    -0.08560
C1581       C  0.02352369  0.85278840  0.52659033     0.04970
C1582       C  0.49119216  0.83839208  0.52829675    -0.03590
Br1583     Br  0.46866573  0.82899383  0.56983857    -0.03280
H1584       H  0.45017150  0.82315317  0.50082631     0.08880
H1585       H  0.06348795  0.87022077  0.99345627     0.06900
Br1586     Br  0.04539323  0.86747750  0.92502325    -0.03710
C1587       C  0.02926426  0.86372633  0.74251864    -0.10340
C1588       C  0.01500448  0.85880878  0.71183159     0.05850
C1589       C  0.48317743  0.84901920  0.71188577    -0.04110
C1590       C  0.46786303  0.84869337  0.74199261    -0.08560
C1591       C  0.48281634  0.85555324  0.77247826     0.04970
C1592       C  0.01296327  0.86056297  0.77254033    -0.03590
Br1593     Br  0.03203352  0.86036135  0.81236474    -0.03280
H1594       H  0.05312605  0.86967197  0.74316176     0.08880
H1595       H  0.44424311  0.84325900  0.74150624     0.06900
Br1596     Br  0.45943898  0.83744723  0.67204486    -0.03710
C1597       C  0.44974179  0.97323837  0.85632205    -0.10340
C1598       C  0.42457306  0.94477937  0.86666559     0.05850
C1599       C  0.39783825  0.94415453  0.87946228    -0.04110
C1600       C  0.39705093  0.97157516  0.88213304    -0.08560
C1601       C  0.42240202  0.00034925  0.87228197     0.04970
C1602       C  0.44899377  0.00072376  0.85895254    -0.03590
Br1603     Br  0.48532541  0.53705023  0.84328509    -0.03280
H1604       H  0.47038869  0.97420782  0.84608170     0.08880
H1605       H  0.37619065  0.97017570  0.89226946     0.06900
Br1606     Br  0.36075927  0.90665381  0.89217964    -0.03710
C1607       C  0.43640911  0.73885421  0.91216122    -0.10460
C1608       C  0.41727322  0.74209231  0.89075547     0.05850
C1609       C  0.40105633  0.71902774  0.86581450    -0.04110
C1610       C  0.40490023  0.69358654  0.86199605    -0.08560
C1611       C  0.42566901  0.69128141  0.88191565     0.04970
C1612       C  0.44115460  0.71394955  0.90764094    -0.03590
Br1613     Br  0.46934064  0.71281163  0.93704306    -0.03280
H1614       H  0.44931482  0.75685300  0.93111090     0.08880
H1615       H  0.39264901  0.67626624  0.84225294     0.06900
Br1616     Br  0.37435124  0.72168828  0.83555746    -0.03710
C1617       C  0.05440727  0.93303056  0.86683354    -0.10340
C1618       C  0.02931625  0.92834048  0.88746228     0.05850
C1619       C  0.03481159  0.95120838  0.91275770    -0.04110
C1620       C  0.06403707  0.97870042  0.91512258    -0.08560
C1621       C  0.08809230  0.98495573  0.89187912     0.04970
C1622       C  0.08353882  0.96042085  0.86921291    -0.03590
Br1623     Br  0.11642840  0.96072057  0.84334922    -0.03280
H1624       H  0.05137483  0.91543709  0.84817078     0.08880
H1625       H  0.06788131  0.49533547  0.93541669     0.06900
Br1626     Br  0.50383434  0.94580769  0.94554769    -0.03710
C1627       C  0.27930245  0.71424439  0.84883928    -0.10340
C1628       C  0.27340608  0.69005719  0.86920582     0.05850
C1629       C  0.29524921  0.69565535  0.89334704    -0.04110
C1630       C  0.32217864  0.72522251  0.89697098    -0.08560
C1631       C  0.32790152  0.74974371  0.87691388     0.04970
C1632       C  0.30582138  0.74386276  0.85270261    -0.03590
Br1633     Br  0.30828093  0.77552136  0.82615080    -0.03280
H1634       H  0.26238006  0.71045710  0.83065776     0.08880
H1635       H  0.33882679  0.72899943  0.91547886     0.06900
Br1636     Br  0.29003396  0.66344515  0.92093518    -0.03710
C1637       C  0.33758739  0.85387175  0.97423548    -0.10340
C1638       C  0.35898896  0.84413367  0.97120197     0.05850
C1639       C  0.36635256  0.83489317  0.50040962    -0.04110
C1640       C  0.35641149  0.84005621  0.53197099    -0.08560
C1641       C  0.33832249  0.85359555  0.53521260     0.04970
C1642       C  0.32700576  0.85824987  0.00586529    -0.03590
Br1643     Br  0.29759727  0.87151875  0.00803057    -0.03280
H1644       H  0.33038473  0.85971733  0.95228091     0.08880
H1645       H  0.36467030  0.83551092  0.55404219     0.06900
Br1646     Br  0.38992584  0.81493234  0.49903502    -0.03710
C1647       C  0.35964319  0.84484737  0.72398863    -0.10340
C1648       C  0.34931644  0.86587445  0.72229889     0.05850
C1649       C  0.34486292  0.87904234  0.75251605    -0.04110
C1650       C  0.35296527  0.87310357  0.78288728    -0.08560
C1651       C  0.36546347  0.85400605  0.78422417     0.04970
C1652       C  0.36752474  0.83877136  0.75454848    -0.03590
Br1653     Br  0.37931243  0.80825955  0.75483976    -0.03280
H1654       H  0.36265662  0.83388197  0.70134189     0.08880
H1655       H  0.35046846  0.88441068  0.80555584     0.06900
Br1656     Br  0.32715997  0.90479229  0.75438887    -0.03710
O1657       O  0.94460223  0.41532608  0.33969962    -0.81330
O1658       O  0.95290292  0.34880341  0.44406061    -0.81350
O1659       O  0.86375961  0.33813933  0.41063345    -0.81360
O1660       O  0.99584482  0.37544259  0.36764414    -0.81300
O1661       O  0.90384253  0.35447515  0.44029310    -0.81420
O1662       O  0.97399520  0.40197272  0.38560799    -0.81340
O1663       O  0.97445166  0.32873060  0.41123949    -0.81330
O1664       O  0.91015950  0.39237403  0.37999627    -0.81360
C1665       C  0.92633754  0.41623769  0.36170348     1.08360
C1666       C  0.97245208  0.34066775  0.43929429     1.08250
C1667       C  0.87606429  0.34646799  0.43910380     1.08390
C1668       C  0.99802228  0.40021496  0.38099375     1.08260
O1669       O  0.96853389  0.37917944  0.31798695    -0.81330
O1670       O  0.86778748  0.28967282  0.41145137    -0.81400
O1671       O  0.86226441  0.34860086  0.34318534    -0.81340
O1672       O  0.92743038  0.28644531  0.36436763    -0.81320
O1673       O  0.91824535  0.28540577  0.41836532    -0.81370
O1674       O  0.90509809  0.35592343  0.31776636    -0.81340
O1675       O  0.95059161  0.32973208  0.31849385    -0.81300
O1676       O  0.86819672  0.29931969  0.35852426    -0.81370
Co1677     Co  0.93904205  0.37781565  0.35478175     1.51530
Co1678     Co  0.91163652  0.32136558  0.42634359     1.51690
Co1679     Co  0.89080543  0.34460917  0.36857533     1.51570
Co1680     Co  0.95976943  0.33048987  0.36572990     1.51470
O1681       O  0.92683251  0.34039056  0.38129957    -1.43260
C1682       C  0.96600229  0.35478238  0.30390818     1.08290
C1683       C  0.85631144  0.28101254  0.38233785     1.08380
C1684       C  0.87784935  0.35240344  0.31640835     1.08320
C1685       C  0.91954845  0.27218101  0.39101817     1.08290
O1686       O  0.92100993  0.12307637  0.30062277    -0.81330
O1687       O  0.94266085  0.05591487  0.37363476    -0.81350
O1688       O  0.49225665  0.11260945  0.37297707    -0.81360
O1689       O  0.87005011  0.04018885  0.34400339    -0.81300
O1690       O  0.98425104  0.09039309  0.42155862    -0.81420
O1691       O  0.91562461  0.07091651  0.32289419    -0.81340
O1692       O  0.89548951  0.02569067  0.39169710    -0.81330
O1693       O  0.96383309  0.13137560  0.32460479    -0.81360
C1694       C  0.94917406  0.13063718  0.29878934     1.08360
C1695       C  0.92013212  0.02875452  0.37847572     1.08250
C1696       C  0.50165434  0.10287136  0.39645412     1.08390
C1697       C  0.89007820  0.04575342  0.32107774     1.08260
O1698       O  0.86826348  0.08808871  0.34016258    -0.81330
O1699       O  0.95066966  0.11591587  0.44665104    -0.81400
O1700       O  0.95648317  0.16815986  0.37887557    -0.81340
O1701       O  0.88314084  0.06290784  0.44087136    -0.81320
O1702       O  0.92313005  0.05729302  0.44169583    -0.81370
O1703       O  0.90954819  0.14067091  0.36174805    -0.81340
O1704       O  0.85839229  0.07821480  0.39278395    -0.81300
O1705       O  0.98573965  0.15341323  0.41925047    -0.81370
Co1706     Co  0.91453172  0.10690437  0.34350683     1.51530
Co1707     Co  0.94803353  0.08847236  0.40825342     1.51690
Co1708     Co  0.96803394  0.13593495  0.37503983     1.51570
Co1709     Co  0.87943430  0.05486608  0.39229740     1.51470
O1710       O  0.92044512  0.09718910  0.38745671    -1.43260
C1711       C  0.85131610  0.08432731  0.36596239     1.08290
C1712       C  0.97406861  0.14239435  0.44663034     1.08380
C1713       C  0.93082970  0.16542585  0.37430884     1.08320
C1714       C  0.89872981  0.05424468  0.45530608     1.08290
O1715       O  0.52583496  0.39701194  0.11317520    -0.81330
O1716       O  0.65598487  0.48070915  0.08402615    -0.81350
O1717       O  0.58936899  0.47903493  0.16046230    -0.81360
O1718       O  0.56491737  0.39612753  0.05191211    -0.81300
O1719       O  0.61649013  0.49087290  0.11553845    -0.81420
O1720       O  0.53899770  0.35698886  0.08387175    -0.81340
O1721       O  0.61663347  0.45028806  0.05217489    -0.81330
O1722       O  0.53770299  0.42544573  0.15835768    -0.81360
C1723       C  0.51924968  0.41130007  0.13523835     1.08360
C1724       C  0.64202115  0.47522993  0.05648230     1.08250
C1725       C  0.60119234  0.49684646  0.13663161     1.08390
C1726       C  0.54304216  0.36885208  0.05575849     1.08260
O1727       O  0.58277131  0.36926653  0.13613572    -0.81330
O1728       O  0.65913023  0.49261293  0.15841593    -0.81400
O1729       O  0.56281021  0.39125656  0.18184272    -0.81340
O1730       O  0.64883610  0.42541205  0.08127995    -0.81320
O1731       O  0.64900888  0.43622566  0.13406829    -0.81370
O1732       O  0.52356782  0.35417870  0.15297513    -0.81340
O1733       O  0.59519185  0.36853652  0.08373539    -0.81300
O1734       O  0.62262562  0.44914269  0.18085913    -0.81370
Co1735     Co  0.55541674  0.38496514  0.12558483     1.51530
Co1736     Co  0.63050061  0.46202582  0.12632592     1.51690
Co1737     Co  0.57987769  0.43513767  0.16471168     1.51570
Co1738     Co  0.60521923  0.41102355  0.07046112     1.51470
O1739       O  0.59043861  0.42556564  0.11255448    -1.43260
C1740       C  0.59139248  0.35787448  0.11248521     1.08290
C1741       C  0.64536100  0.47735064  0.18440744     1.08380
C1742       C  0.53446934  0.36794477  0.18095725     1.08320
C1743       C  0.66080187  0.42951904  0.10933556     1.08290
O1744       O  0.68821760  0.15725343  0.34292720    -0.81330
O1745       O  0.63833243  0.02415078  0.37109545    -0.81350
O1746       O  0.67172915  0.06234751  0.30695308    -0.81360
O1747       O  0.62068336  0.08845338  0.41477299    -0.81300
O1748       O  0.68883508  0.04003212  0.33766158    -0.81420
O1749       O  0.63842154  0.11970887  0.37435054    -0.81340
O1750       O  0.62162928  0.03622403  0.41570962    -0.81330
O1751       O  0.67080740  0.11549164  0.31040910    -0.81360
C1752       C  0.67799692  0.14339421  0.31463842     1.08360
C1753       C  0.61733298  0.01648028  0.39271487     1.08250
C1754       C  0.67746496  0.04121163  0.31063380     1.08390
C1755       C  0.61643271  0.10298106  0.39334033     1.08260
O1756       O  0.68276382  0.16313126  0.41643668    -0.81330
O1757       O  0.72582455  0.08940793  0.38751497    -0.81400
O1758       O  0.73274918  0.14869550  0.33726949    -0.81340
O1759       O  0.68652566  0.06990518  0.43628462    -0.81320
O1760       O  0.68508806  0.03018492  0.40807549    -0.81370
O1761       O  0.72609518  0.14885429  0.39093428    -0.81340
O1762       O  0.68573708  0.12515107  0.43608801    -0.81300
O1763       O  0.73282755  0.09502543  0.33413860    -0.81370
Co1764     Co  0.68122738  0.13212013  0.38400825     1.51530
Co1765     Co  0.68142874  0.05817572  0.38084749     1.51690
Co1766     Co  0.69984392  0.10424526  0.32505773     1.51570
Co1767     Co  0.65550522  0.08099393  0.42051121     1.51470
O1768       O  0.67323060  0.09031792  0.36836857    -1.43260
C1769       C  0.68094978  0.14761046  0.44134997     1.08290
C1770       C  0.74302253  0.09473213  0.36209347     1.08380
C1771       C  0.74328775  0.16041161  0.36586275     1.08320
C1772       C  0.68436464  0.04324826  0.43594673     1.08290
O1773       O  0.53490388  0.11709339  0.15996769    -0.81330
O1774       O  0.62237401  0.17032788  0.07106892    -0.81350
O1775       O  0.53068612  0.17910430  0.09388617    -0.81360
O1776       O  0.60641158  0.13049883  0.11582600    -0.81300
O1777       O  0.56544143  0.17149119  0.06683561    -0.81420
O1778       O  0.58927045  0.11832587  0.16674010    -0.81340
O1779       O  0.66329692  0.17995048  0.09994971    -0.81330
O1780       O  0.53871719  0.13155710  0.10886294    -0.81360
C1781       C  0.52497201  0.11126311  0.13041728     1.08360
C1782       C  0.64980454  0.17456013  0.07215347     1.08250
C1783       C  0.54156472  0.17447226  0.06657889     1.08390
C1784       C  0.59733271  0.11142250  0.13882636     1.08260
O1785       O  0.61522846  0.17721915  0.20394555    -0.81330
O1786       O  0.59930932  0.23367970  0.09584102    -0.81400
O1787       O  0.52684286  0.16450545  0.16001480    -0.81340
O1788       O  0.65641758  0.21957225  0.14543230    -0.81320
O1789       O  0.65032695  0.23264840  0.09816083    -0.81370
O1790       O  0.56178170  0.17691800  0.19695043    -0.81340
O1791       O  0.64506153  0.16807345  0.17025601    -0.81300
O1792       O  0.57201559  0.21983552  0.14048358    -0.81370
Co1793     Co  0.57649653  0.14958100  0.17929656     1.51530
Co1794     Co  0.60731863  0.19879905  0.08931605     1.51690
Co1795     Co  0.55768125  0.17669219  0.12306632     1.51570
Co1796     Co  0.63035203  0.17622161  0.12856515     1.51470
O1797       O  0.59416024  0.17881452  0.13987666    -1.43260
C1798       C  0.63842037  0.17417210  0.19954216     1.08290
C1799       C  0.58733243  0.24059970  0.12018979     1.08380
C1800       C  0.53450102  0.16851736  0.19001288     1.08320
C1801       C  0.66494655  0.23994077  0.12466755     1.08290
O1802       O  0.91099035  0.43693986  0.16357836    -0.81330
O1803       O  0.85207482  0.45123569  0.06303447    -0.81350
O1804       O  0.82866818  0.35863741  0.09497526    -0.81360
O1805       O  0.88374746  0.49708336  0.13560697    -0.81300
O1806       O  0.84846266  0.39884162  0.06552955    -0.81420
O1807       O  0.90254330  0.46822612  0.11663826    -0.81340
O1808       O  0.83785993  0.48010622  0.09109044    -0.81330
O1809       O  0.88491959  0.40213115  0.12344749    -0.81360
C1810       C  0.90920518  0.41707073  0.14164114     1.08360
C1811       C  0.84997911  0.47477903  0.06522793     1.08250
C1812       C  0.83851141  0.37054424  0.06686267     1.08390
C1813       C  0.90621358  0.49492672  0.12271698     1.08260
O1814       O  0.88276658  0.46730900  0.18409609    -0.81330
O1815       O  0.78486503  0.37054646  0.09417370    -0.81400
O1816       O  0.84044633  0.35857669  0.16304200    -0.81340
O1817       O  0.79169797  0.44005923  0.13877032    -0.81320
O1818       O  0.78837625  0.42555112  0.08585826    -0.81370
O1819       O  0.85266941  0.40427416  0.18618988    -0.81340
O1820       O  0.83588575  0.45776851  0.18489870    -0.81300
O1821       O  0.79517905  0.37037887  0.14706303    -0.81370
Co1822     Co  0.87597386  0.43533544  0.14819915     1.51530
Co1823     Co  0.81974977  0.41229995  0.07915460     1.51690
Co1824     Co  0.83914730  0.38821761  0.13632211     1.51570
Co1825     Co  0.83711472  0.46593080  0.13737147     1.51470
O1826       O  0.83907368  0.42692631  0.12371893    -1.43260
C1827       C  0.86125280  0.46901473  0.19924212     1.08290
C1828       C  0.77646668  0.35957021  0.12315616     1.08380
C1829       C  0.84693984  0.37627882  0.18910603     1.08320
C1830       C  0.77685203  0.43136459  0.11199535     1.08290
C1831       C  0.99422372  0.05337736  0.12117462    -0.10340
C1832       C  0.99535032  0.08179008  0.12254832     0.05850
C1833       C  0.96735505  0.08125446  0.11981356    -0.04110
C1834       C  0.93898009  0.05280946  0.11811586    -0.08560
C1835       C  0.93743298  0.02408585  0.11846100     0.04970
C1836       C  0.96592725  0.02481901  0.11853431    -0.03590
Br1837     Br  0.96884698  0.98838464  0.11661008    -0.03280
H1838       H  0.51552785  0.05338023  0.12270734     0.08880
H1839       H  0.91783918  0.05326560  0.11748760     0.06900
Br1840     Br  0.96601424  0.11859796  0.12041787    -0.03710
C1841       C  0.74440383  0.30804497  0.14762131    -0.10340
C1842       C  0.74612482  0.33103227  0.12785798     0.05850
C1843       C  0.71991661  0.32448711  0.11013809    -0.04110
C1844       C  0.69317649  0.29521639  0.11148928    -0.08560
C1845       C  0.69203523  0.27157171  0.12942387     0.04970
C1846       C  0.71785940  0.27829859  0.14815213    -0.03590
Br1847     Br  0.72004954  0.24732399  0.17149502    -0.03280
H1848       H  0.76456438  0.31250897  0.16093098     0.08880
H1849       H  0.67347487  0.29052499  0.09716509     0.06900
Br1850     Br  0.71900654  0.35377427  0.08278291    -0.03710
C1851       C  0.67113821  0.15795876  0.22536724    -0.10340
C1852       C  0.65521688  0.17391339  0.22893497     0.05850
C1853       C  0.65247011  0.18531317  0.26126665    -0.04110
C1854       C  0.66219382  0.17735602  0.28927403    -0.08560
C1855       C  0.67500031  0.15844851  0.28563466     0.04970
C1856       C  0.68101584  0.15028456  0.25309183    -0.03590
Br1857     Br  0.70179421  0.12754109  0.24454318    -0.03280
H1858       H  0.67438259  0.14967747  0.20095168     0.08880
H1859       H  0.65813198  0.18448811  0.31395717     0.06900
Br1860     Br  0.63558762  0.21161922  0.26907478    -0.03710
C1861       C  0.65002953  0.13804244  0.02989302    -0.10340
C1862       C  0.66271981  0.16883846  0.04138300     0.05850
C1863       C  0.68221842  0.19311954  0.02031591    -0.04110
C1864       C  0.68784394  0.18610554  0.98746459    -0.08560
C1865       C  0.67491012  0.15501389  0.47581305     0.04970
C1866       C  0.65656847  0.13085399  0.49792336    -0.03590
Br1867     Br  0.63779894  0.08718243  0.48664994    -0.03280
H1868       H  0.63400841  0.11933381  0.04558745     0.08880
H1869       H  0.70241218  0.20486635  0.47114829     0.06900
Br1870     Br  0.70052548  0.23592703  0.03517559    -0.03710
C1871       C  0.68573734  0.01740835  0.02290040    -0.10340
C1872       C  0.65391291  0.49605467  0.02787071     0.05850
C1873       C  0.63319829  0.49177519  0.00249941    -0.04110
C1874       C  0.64456441  0.00580837  0.47233129    -0.08560
C1875       C  0.67601593  0.02644792  0.46700182     0.04970
C1876       C  0.69676487  0.03323631  0.99290734    -0.03590
Br1877     Br  0.73998356  0.06330395  0.98795909    -0.03280
H1878       H  0.70200396  0.02140422  0.04196011     0.08880
H1879       H  0.62826737  0.00129575  0.45320002     0.06900
Br1880     Br  0.58860775  0.46828751  0.00665861    -0.03710
C1881       C  0.63932503  0.00134877  0.27344766    -0.10340
C1882       C  0.67024625  0.01873725  0.28273952     0.05850
C1883       C  0.69339072  0.02093945  0.26028579    -0.04110
C1884       C  0.68529124  0.50734959  0.22801068    -0.08560
C1885       C  0.65416940  0.49071108  0.21847186     0.04970
C1886       C  0.63098967  0.98655767  0.24221520    -0.03590
Br1887     Br  0.58738475  0.96336065  0.23354540    -0.03280
H1888       H  0.62153292  0.00064818  0.29008503     0.08880
H1889       H  0.70321909  0.50997333  0.21036918     0.06900
Br1890     Br  0.73618885  0.04408314  0.27206165    -0.03710
C1891       C  0.62300611  0.05211870  0.12042474    -0.10340
C1892       C  0.59861039  0.02522046  0.13475948     0.05850
C1893       C  0.57328862  0.02695016  0.14871120    -0.04110
C1894       C  0.57297186  0.05470303  0.14852148    -0.08560
C1895       C  0.59751871  0.08167734  0.13470913     0.04970
C1896       C  0.62299972  0.08015476  0.12098330    -0.03590
Br1897     Br  0.66061582  0.11639539  0.10754443    -0.03280
H1898       H  0.64312247  0.05190418  0.11037088     0.08880
H1899       H  0.55350015  0.05535114  0.15993050     0.06900
Br1900     Br  0.53781509  0.49238901  0.16803338    -0.03710
C1901       C  0.61118344  0.29438147  0.10008032    -0.10340
C1902       C  0.59042732  0.27195310  0.12241060     0.05850
C1903       C  0.57203866  0.27960534  0.14364979    -0.04110
C1904       C  0.57397800  0.30836489  0.14118725    -0.08560
C1905       C  0.59356753  0.32990840  0.11750197     0.04970
C1906       C  0.61280201  0.32279186  0.09736844    -0.03590
Br1907     Br  0.64198767  0.35073133  0.06555277    -0.03280
H1908       H  0.62585714  0.28952683  0.08368308     0.08880
H1909       H  0.55889377  0.31323130  0.15688272     0.06900
Br1910     Br  0.54224709  0.25140364  0.17492606    -0.03710
C1911       C  0.70509513  0.42862378  0.08140811    -0.10340
C1912       C  0.68983719  0.42888578  0.11144235     0.05850
C1913       C  0.70351890  0.42975620  0.14166482    -0.04110
C1914       C  0.73142473  0.43003715  0.14109495    -0.08560
C1915       C  0.74665083  0.42984222  0.11095345     0.04970
C1916       C  0.73306348  0.42934310  0.08078246    -0.03590
Br1917     Br  0.75136907  0.43091909  0.03741007    -0.03280
H1918       H  0.69553325  0.42847740  0.05781065     0.08880
H1919       H  0.74135218  0.43056562  0.16459000     0.06900
Br1920     Br  0.68586068  0.43066483  0.18466322    -0.03710
C1921       C  0.97353385  0.40529543  0.10682925    -0.10340
C1922       C  0.98977561  0.41043572  0.13625456     0.05850
C1923       C  0.97742807  0.41481177  0.16698728    -0.04110
C1924       C  0.95026752  0.41499831  0.16746976    -0.08560
C1925       C  0.93499870  0.41175973  0.13814289     0.04970
C1926       C  0.94628627  0.40619076  0.10750195    -0.03590
Br1927     Br  0.92741856  0.40262568  0.06592658    -0.03280
H1928       H  0.98264293  0.40178206  0.08319466     0.08880
H1929       H  0.94134254  0.41856810  0.19124403     0.06900
Br1930     Br  0.49553143  0.42109687  0.21008017    -0.03710
C1931       C  0.52224417  0.16215175  0.47525099    -0.10340
C1932       C  0.99206066  0.15640298  0.47666601     0.05850
C1933       C  0.97923964  0.15958348  0.00708984    -0.04110
C1934       C  0.49597283  0.16619242  0.03620233    -0.08560
C1935       C  0.52548610  0.16964177  0.03520057     0.04970
C1936       C  0.53908864  0.16871540  0.00396656    -0.03590
Br1937     Br  0.58013725  0.17562847  0.99748097    -0.03280
H1938       H  0.53229587  0.15988450  0.45166626     0.08880
H1939       H  0.48558872  0.16807729  0.05965906     0.06900
Br1940     Br  0.94000430  0.15672560  0.00953239    -0.03710
C1941       C  0.48874439  0.12821134  0.26520466    -0.10340
C1942       C  0.96640904  0.13672761  0.26731710     0.05850
C1943       C  0.96517742  0.15445889  0.24235857    -0.04110
C1944       C  0.48738266  0.16449713  0.21655999    -0.08560
C1945       C  0.51094178  0.15757238  0.21619660     0.04970
C1946       C  0.51092782  0.13845077  0.24027152    -0.03590
Br1947     Br  0.53998401  0.12466865  0.24103355    -0.03280
H1948       H  0.48997311  0.11453169  0.28417007     0.08880
H1949       H  0.98699522  0.17864467  0.19756358     0.06900
Br1950     Br  0.93600079  0.16796053  0.24399073    -0.03710
C1951       C  0.88453025  0.50695739  0.48165673    -0.10340
C1952       C  0.88593656  0.03531099  0.48411289     0.05850
C1953       C  0.87393555  0.04338429  0.01243754    -0.04110
C1954       C  0.86224480  0.02344700  0.03896437    -0.08560
C1955       C  0.86134601  0.49504226  0.03680030     0.04970
C1956       C  0.87182963  0.48645742  0.50701216    -0.03590
Br1957     Br  0.86926617  0.44723601  0.49681666    -0.03280
H1958       H  0.89267148  0.50023524  0.45916517     0.08880
H1959       H  0.85387421  0.03016556  0.06119771     0.06900
Br1960     Br  0.87354598  0.08122078  0.01633349    -0.03710
C1961       C  0.89774248  0.50393524  0.24269380    -0.10340
C1962       C  0.86706299  0.48633336  0.23190898     0.05850
C1963       C  0.84378319  0.98768511  0.25154222    -0.04110
C1964       C  0.85170946  0.00608102  0.28118108    -0.08560
C1965       C  0.88262638  0.02440706  0.29126866     0.04970
C1966       C  0.90572051  0.02321808  0.27138322    -0.03590
Br1967     Br  0.94886856  0.04750735  0.28074418    -0.03280
H1968       H  0.91612290  0.50371231  0.22802910     0.08880
H1969       H  0.83365373  0.00704106  0.29571903     0.06900
Br1970     Br  0.80096465  0.96624608  0.23942406    -0.03710
C1971       C  0.53158212  0.07782359  0.40507670    -0.10340
C1972       C  0.53106546  0.10316268  0.39334477     0.05850
C1973       C  0.55876411  0.12836969  0.38089772    -0.04110
C1974       C  0.58614810  0.12756466  0.38021372    -0.08560
C1975       C  0.58652608  0.10189754  0.39184143     0.04970
C1976       C  0.55849546  0.07663056  0.40360845    -0.03590
Br1977     Br  0.55417819  0.03866129  0.41600172    -0.03280
H1978       H  0.51050240  0.05820847  0.41469410     0.08880
H1979       H  0.60741119  0.14753504  0.37151525     0.06900
Br1980     Br  0.56119529  0.16561615  0.36785153    -0.03710
C1981       C  0.82160232  0.10465722  0.34050389    -0.10340
C1982       C  0.82391316  0.08765809  0.36546876     0.05850
C1983       C  0.80040595  0.07519139  0.39046327    -0.04110
C1984       C  0.77536774  0.07944251  0.38962152    -0.08560
C1985       C  0.77253502  0.09555337  0.36417904     0.04970
C1986       C  0.79630347  0.10877891  0.33971045    -0.03590
Br1987     Br  0.79626658  0.13360745  0.30532489    -0.03280
H1988       H  0.83969966  0.11508237  0.32167001     0.08880
H1989       H  0.75722260  0.06878378  0.40836873     0.06900
Br1990     Br  0.79915835  0.05025460  0.42566033    -0.03710
C1991       C  0.97490151  0.33316278  0.99908892    -0.10340
C1992       C  0.99027673  0.34213365  0.46804783     0.05850
C1993       C  0.52223453  0.35395765  0.46598763    -0.04110
C1994       C  0.53850466  0.35901726  0.49512173    -0.08560
C1995       C  0.52352263  0.35277405  0.02658908     0.04970
C1996       C  0.99119266  0.33839279  0.02829948    -0.03590
Br1997     Br  0.96867065  0.32900805  0.06984385    -0.03280
H1998       H  0.95017352  0.32317210  0.00083404     0.08880
H1999       H  0.56347940  0.37020444  0.49344790     0.06900
Br2000     Br  0.54538062  0.36745778  0.42501618    -0.03710
C2001       C  0.52926674  0.36373270  0.24251870    -0.10340
C2002       C  0.51500607  0.35881099  0.21183116     0.05850
C2003       C  0.98317818  0.34901806  0.21188543    -0.04110
C2004       C  0.96786357  0.34869352  0.24199174    -0.08560
C2005       C  0.98281706  0.35555686  0.27247776     0.04970
C2006       C  0.51296535  0.36056940  0.27254048    -0.03590
Br2007     Br  0.53203580  0.36036942  0.31236579    -0.03280
H2008       H  0.55312926  0.36968068  0.24316214     0.08880
H2009       H  0.94424292  0.34325654  0.24150469     0.06900
Br2010     Br  0.95943843  0.33743799  0.17204480    -0.03710
C2011       C  0.94973783  0.47323759  0.35632426    -0.10340
C2012       C  0.92456789  0.44477832  0.36666553     0.05850
C2013       C  0.89783326  0.44415396  0.37946185    -0.04110
C2014       C  0.89704712  0.47157518  0.38213426    -0.08560
C2015       C  0.92239922  0.50034947  0.37228511     0.04970
C2016       C  0.94899099  0.50072364  0.35895640    -0.03590
Br2017     Br  0.98532137  0.03704849  0.34328028    -0.03280
H2018       H  0.97038473  0.47420672  0.34608442     0.08880
H2019       H  0.87618677  0.47017594  0.39227012     0.06900
Br2020     Br  0.86075294  0.40665309  0.39217605    -0.03710
C2021       C  0.93640544  0.23885362  0.41215592    -0.10460
C2022       C  0.91727006  0.24209145  0.39074906     0.05850
C2023       C  0.90105581  0.21902788  0.36580637    -0.04110
C2024       C  0.90490153  0.19358784  0.36198762    -0.08560
C2025       C  0.92566931  0.19128268  0.38190900     0.04970
C2026       C  0.94115254  0.21394996  0.40763564    -0.03590
Br2027     Br  0.96933690  0.21281169  0.43704001    -0.03280
H2028       H  0.94930925  0.25685175  0.43110687     0.08880
H2029       H  0.89265207  0.17626820  0.34224341     0.06900
Br2030     Br  0.87435137  0.22168807  0.33554800    -0.03710
C2031       C  0.55439212  0.43304298  0.36681489    -0.10340
C2032       C  0.52930732  0.42834367  0.38745790     0.05850
C2033       C  0.53480692  0.45120633  0.41276138    -0.04110
C2034       C  0.56403179  0.47869959  0.41512358    -0.08560
C2035       C  0.58808282  0.48496075  0.39187174     0.04970
C2036       C  0.58352304  0.46043244  0.36919097    -0.03590
Br2037     Br  0.61640077  0.46074110  0.34329393    -0.03280
H2038       H  0.55135289  0.41545024  0.34813404     0.08880
H2039       H  0.56787670  0.99533412  0.43540980     0.06900
Br2040     Br  0.00383548  0.44579519  0.44556381    -0.03710
C2041       C  0.77929935  0.21423834  0.34882661    -0.10340
C2042       C  0.77340156  0.19005238  0.36919601     0.05850
C2043       C  0.79524378  0.19565178  0.39333889    -0.04110
C2044       C  0.82217275  0.22521922  0.39696289    -0.08560
C2045       C  0.82789640  0.24973966  0.37690411     0.04970
C2046       C  0.80581813  0.24385703  0.35268968    -0.03590
Br2047     Br  0.80828005  0.27551364  0.32613241    -0.03280
H2048       H  0.76237810  0.21044997  0.33064308     0.08880
H2049       H  0.83881976  0.22899709  0.41547265     0.06900
Br2050     Br  0.79002793  0.16344296  0.42092971    -0.03710
C2051       C  0.83758051  0.35387477  0.47422982    -0.10340
C2052       C  0.85897807  0.34413146  0.47119746     0.05850
C2053       C  0.86634358  0.33488739  0.00040596    -0.04110
C2054       C  0.85640124  0.34005187  0.03196618    -0.08560
C2055       C  0.83831694  0.35359666  0.03520516     0.04970
C2056       C  0.82699971  0.35825563  0.50585913    -0.03590
Br2057     Br  0.79759609  0.37153079  0.50802195    -0.03280
H2058       H  0.83038045  0.35972222  0.45227465     0.08880
H2059       H  0.86465567  0.33550337  0.05403862     0.06900
Br2060     Br  0.88991113  0.31492034  0.99903433    -0.03710
C2061       C  0.85964688  0.34484958  0.22398074    -0.10340
C2062       C  0.84931862  0.36587533  0.22229046     0.05850
C2063       C  0.84486137  0.37904072  0.25250736    -0.04110
C2064       C  0.85296181  0.37310120  0.28287933    -0.08560
C2065       C  0.86546144  0.35400503  0.28421718     0.04970
C2066       C  0.86752621  0.33877250  0.25454135    -0.03590
Br2067     Br  0.87931495  0.30826156  0.25483336    -0.03280
H2068       H  0.86266288  0.33388593  0.20133402     0.08880
H2069       H  0.85046220  0.38440656  0.30554779     0.06900
Br2070     Br  0.82715493  0.40478749  0.25437846    -0.03710
O2071       O  0.94461167  0.41532985  0.83970519    -0.81330
O2072       O  0.95290918  0.34880284  0.94406221    -0.81350
O2073       O  0.86376643  0.33814010  0.91063382    -0.81360
O2074       O  0.99585170  0.37544283  0.86764768    -0.81300
O2075       O  0.90384833  0.35447473  0.94029522    -0.81420
O2076       O  0.97400231  0.40197280  0.88561293    -0.81340
O2077       O  0.97445720  0.32872941  0.91124112    -0.81330
O2078       O  0.91016673  0.39237568  0.87999934    -0.81360
C2079       C  0.92634571  0.41624036  0.86170813     1.08360
C2080       C  0.97245759  0.34066607  0.93929623     1.08250
C2081       C  0.87607016  0.34646778  0.93910461     1.08390
C2082       C  0.99802924  0.40021474  0.88099877     1.08260
O2083       O  0.96854194  0.37918227  0.81799111    -0.81330
O2084       O  0.86779399  0.28967356  0.91145152    -0.81400
O2085       O  0.86227238  0.34860380  0.84318663    -0.81340
O2086       O  0.92743616  0.28644629  0.86436795    -0.81320
O2087       O  0.91825122  0.28540571  0.91836560    -0.81370
O2088       O  0.90510696  0.35592858  0.81776818    -0.81340
O2089       O  0.95059796  0.32973442  0.81849630    -0.81300
O2090       O  0.86820405  0.29932155  0.85852448    -0.81370
Co2091     Co  0.93904994  0.37781813  0.85478543     1.51530
Co2092     Co  0.91164268  0.32136561  0.92634479     1.51690
Co2093     Co  0.89081284  0.34461096  0.86857650     1.51570
Co2094     Co  0.95977574  0.33049053  0.86573174     1.51470
O2095       O  0.92683921  0.34039166  0.88130142    -1.43260
C2096       C  0.96600887  0.35478500  0.80391129     1.08290
C2097       C  0.85631836  0.28101396  0.88233777     1.08380
C2098       C  0.87785820  0.35240858  0.81640993     1.08320
C2099       C  0.91955446  0.27218152  0.89101812     1.08290
O2100       O  0.92101260  0.12307629  0.80062505    -0.81330
O2101       O  0.94266432  0.05591482  0.87363591    -0.81350
O2102       O  0.49226043  0.11260857  0.87297748    -0.81360
O2103       O  0.87005251  0.04018822  0.84400577    -0.81300
O2104       O  0.98425533  0.09039290  0.92155941    -0.81420
O2105       O  0.91562658  0.07091555  0.82289544    -0.81340
O2106       O  0.89549314  0.02569099  0.89169905    -0.81330
O2107       O  0.96383550  0.13137133  0.82460400    -0.81360
C2108       C  0.94917610  0.13063508  0.79878990     1.08360
C2109       C  0.92013545  0.02875463  0.87847702     1.08250
C2110       C  0.50165851  0.10287125  0.89645480     1.08390
C2111       C  0.89008001  0.04575258  0.82107950     1.08260
O2112       O  0.86826656  0.08808857  0.84016483    -0.81330
O2113       O  0.95067517  0.11591707  0.94665136    -0.81400
O2114       O  0.95648877  0.16816005  0.87887175    -0.81340
O2115       O  0.88314577  0.06290935  0.94087311    -0.81320
O2116       O  0.92313459  0.05729387  0.94169723    -0.81370
O2117       O  0.90955168  0.14067027  0.86175100    -0.81340
O2118       O  0.85839570  0.07821502  0.89278626    -0.81300
O2119       O  0.98574385  0.15341400  0.91924894    -0.81370
Co2120     Co  0.91453466  0.10690384  0.84350869     1.51530
Co2121     Co  0.94803791  0.08847264  0.90825433     1.51690
Co2122     Co  0.96803783  0.13593393  0.87503874     1.51570
Co2123     Co  0.87943793  0.05486638  0.89229947     1.51470
O2124       O  0.92044904  0.09718898  0.88745796    -1.43260
C2125       C  0.85131942  0.08432751  0.86596472     1.08290
C2126       C  0.97407350  0.14239598  0.94662935     1.08380
C2127       C  0.93083488  0.16542605  0.87430815     1.08320
C2128       C  0.89873466  0.05424607  0.95530772     1.08290
O2129       O  0.52583152  0.39701380  0.61317829    -0.81330
O2130       O  0.65598129  0.48071102  0.58402634    -0.81350
O2131       O  0.58936714  0.47903519  0.66046842    -0.81360
O2132       O  0.56491214  0.39613265  0.55191531    -0.81300
O2133       O  0.61648591  0.49087337  0.61554257    -0.81420
O2134       O  0.53899236  0.35699092  0.58387021    -0.81340
O2135       O  0.61662655  0.45029094  0.55218043    -0.81330
O2136       O  0.53769999  0.42544562  0.65836239    -0.81360
C2137       C  0.51924666  0.41130135  0.63524262     1.08360
C2138       C  0.64201618  0.47523086  0.55648316     1.08250
C2139       C  0.60118926  0.49684684  0.63663751     1.08390
C2140       C  0.54303725  0.36885666  0.55575839     1.08260
O2141       O  0.58276645  0.36926500  0.63613276    -0.81330
O2142       O  0.65912701  0.49261269  0.65841826    -0.81400
O2143       O  0.56280827  0.39125499  0.68184132    -0.81340
O2144       O  0.64883130  0.42541270  0.58127904    -0.81320
O2145       O  0.64900570  0.43622639  0.63406750    -0.81370
O2146       O  0.52356404  0.35417815  0.65297469    -0.81340
O2147       O  0.59518641  0.36853725  0.58373210    -0.81300
O2148       O  0.62262339  0.44914163  0.68086093    -0.81370
Co2149     Co  0.55541257  0.38496521  0.62558491     1.51530
Co2150     Co  0.63049751  0.46202676  0.62632709     1.51690
Co2151     Co  0.57987508  0.43513723  0.66471491     1.51570
Co2152     Co  0.60521399  0.41102573  0.57046214     1.51470
O2153       O  0.59043490  0.42556651  0.61255707    -1.43260
C2154       C  0.59138684  0.35787350  0.61248104     1.08290
C2155       C  0.64535883  0.47734956  0.68440968     1.08380
C2156       C  0.53446710  0.36794382  0.68095659     1.08320
C2157       C  0.66079767  0.42951925  0.60933430     1.08290
O2158       O  0.68822293  0.15725664  0.84292674    -0.81330
O2159       O  0.63833600  0.02415322  0.87109376    -0.81350
O2160       O  0.67173464  0.06235098  0.80695211    -0.81360
O2161       O  0.62068782  0.08845518  0.91477128    -0.81300
O2162       O  0.68883923  0.04003440  0.83766064    -0.81420
O2163       O  0.63842701  0.11971229  0.87435007    -0.81340
O2164       O  0.62163355  0.03622564  0.91570897    -0.81330
O2165       O  0.67081371  0.11549541  0.81040769    -0.81360
C2166       C  0.67800235  0.14339771  0.81463774     1.08360
C2167       C  0.61733687  0.01648219  0.89271370     1.08250
C2168       C  0.67746954  0.04121448  0.81063281     1.08390
C2169       C  0.61643780  0.10298364  0.89333902     1.08260
O2170       O  0.68276898  0.16313384  0.91643677    -0.81330
O2171       O  0.72582827  0.08940924  0.88751525    -0.81400
O2172       O  0.73275473  0.14869842  0.83726942    -0.81340
O2173       O  0.68652930  0.06990634  0.93628482    -0.81320
O2174       O  0.68509075  0.03018610  0.90807457    -0.81370
O2175       O  0.72610044  0.14885703  0.89093414    -0.81340
O2176       O  0.68574135  0.12515291  0.93608745    -0.81300
O2177       O  0.73283255  0.09502783  0.83413909    -0.81370
Co2178     Co  0.68123268  0.13212308  0.88400780     1.51530
Co2179     Co  0.68143249  0.05817763  0.88084668     1.51690
Co2180     Co  0.69984948  0.10424835  0.82505738     1.51570
Co2181     Co  0.65550951  0.08099574  0.92051044     1.51470
O2182       O  0.67323546  0.09032063  0.86836790    -1.43260
C2183       C  0.68095409  0.14761232  0.94134977     1.08290
C2184       C  0.74302677  0.09473378  0.86209417     1.08380
C2185       C  0.74329320  0.16041433  0.86586271     1.08320
C2186       C  0.68436781  0.04324914  0.93594622     1.08290
O2187       O  0.53490348  0.11709450  0.65996874    -0.81330
O2188       O  0.62237304  0.17032817  0.57106954    -0.81350
O2189       O  0.53068441  0.17910297  0.59388601    -0.81360
O2190       O  0.60641086  0.13049939  0.61582669    -0.81300
O2191       O  0.56544020  0.17149069  0.56683521    -0.81420
O2192       O  0.58926994  0.11832673  0.66674089    -0.81340
O2193       O  0.66329616  0.17995105  0.59995004    -0.81330
O2194       O  0.53871702  0.13155712  0.60886356    -0.81360
C2195       C  0.52497165  0.11126359  0.63041832     1.08360
C2196       C  0.64980362  0.17456059  0.57215392     1.08250
C2197       C  0.54156259  0.17447035  0.56657876     1.08390
C2198       C  0.59733204  0.11142317  0.63882715     1.08260
O2199       O  0.61522860  0.17722030  0.70394611    -0.81330
O2200       O  0.59930761  0.23367972  0.59583904    -0.81400
O2201       O  0.52684283  0.16450636  0.66001487    -0.81340
O2202       O  0.65641673  0.21957278  0.64543241    -0.81320
O2203       O  0.65032560  0.23264904  0.59816110    -0.81370
O2204       O  0.56178225  0.17691997  0.69695011    -0.81340
O2205       O  0.64506129  0.16807424  0.67025650    -0.81300
O2206       O  0.57201409  0.21983607  0.64048170    -0.81370
Co2207     Co  0.57649644  0.14958228  0.67929704     1.51530
Co2208     Co  0.60731747  0.19879931  0.58931576     1.51690
Co2209     Co  0.55768051  0.17669242  0.62306588     1.51570
Co2210     Co  0.63035136  0.17622218  0.62856562     1.51470
O2211       O  0.59415968  0.17881549  0.63987674    -1.43260
C2212       C  0.63842041  0.17417306  0.69954274     1.08290
C2213       C  0.58732998  0.24059971  0.62018703     1.08380
C2214       C  0.53450142  0.16851884  0.69001283     1.08320
C2215       C  0.66494527  0.23994136  0.62466783     1.08290
O2216       O  0.91098856  0.43694418  0.66357985    -0.81330
O2217       O  0.85207173  0.45123667  0.56303497    -0.81350
O2218       O  0.82866662  0.35863931  0.59497767    -0.81360
O2219       O  0.88374404  0.49708568  0.63560632    -0.81300
O2220       O  0.84846066  0.39884340  0.56553191    -0.81420
O2221       O  0.90254003  0.46822836  0.61663844    -0.81340
O2222       O  0.83785611  0.48010711  0.59108959    -0.81330
O2223       O  0.88491766  0.40213414  0.62345003    -0.81360
C2224       C  0.90920334  0.41707442  0.64164348     1.08360
C2225       C  0.84997548  0.47477969  0.56522744     1.08250
C2226       C  0.83850952  0.37054606  0.56686489     1.08390
C2227       C  0.90621034  0.49492899  0.62271696     1.08260
O2228       O  0.88276368  0.46731247  0.68409594    -0.81330
O2229       O  0.78486274  0.37054763  0.59417558    -0.81400
O2230       O  0.84044571  0.35858043  0.66304602    -0.81340
O2231       O  0.79169441  0.44006102  0.63876994    -0.81320
O2232       O  0.78837279  0.42555149  0.58585827    -0.81370
O2233       O  0.85266832  0.40427811  0.68619230    -0.81340
O2234       O  0.83588279  0.45777209  0.68489885    -0.81300
O2235       O  0.79517673  0.37038029  0.64706510    -0.81370
Co2236     Co  0.87597142  0.43533837  0.64820030     1.51530
Co2237     Co  0.81974704  0.41230104  0.57915583     1.51690
Co2238     Co  0.83914518  0.38821991  0.63632449     1.51570
Co2239     Co  0.83711130  0.46593284  0.63737113     1.51470
O2240       O  0.83907058  0.42692805  0.62372029    -1.43260
C2241       C  0.86125004  0.46901843  0.69924194     1.08290
C2242       C  0.77646443  0.35957149  0.62315810     1.08380
C2243       C  0.84694071  0.37628357  0.68910946     1.08320
C2244       C  0.77684838  0.43136541  0.61199492     1.08290
C2245       C  0.99422327  0.05337778  0.62117531    -0.10340
C2246       C  0.99534987  0.08179053  0.62254981     0.05850
C2247       C  0.96735450  0.08125490  0.61981588    -0.04110
C2248       C  0.93897956  0.05280991  0.61811799    -0.08560
C2249       C  0.93743246  0.02408626  0.61846222     0.04970
C2250       C  0.96592677  0.02481942  0.61853494    -0.03590
Br2251     Br  0.96884643  0.98838499  0.61660969    -0.03280
H2252       H  0.51552737  0.05338062  0.62270707     0.08880
H2253       H  0.91783864  0.05326609  0.61749026     0.06900
Br2254     Br  0.96601350  0.11859834  0.62042139    -0.03710
C2255       C  0.74440179  0.30804612  0.64762288    -0.10340
C2256       C  0.74612261  0.33103344  0.62785975     0.05850
C2257       C  0.71991443  0.32448806  0.61013962    -0.04110
C2258       C  0.69317456  0.29521712  0.61149032    -0.08560
C2259       C  0.69203359  0.27157243  0.62942455     0.04970
C2260       C  0.71785766  0.27829952  0.64815316    -0.03590
Br2261     Br  0.72004817  0.24732503  0.67149587    -0.03280
H2262       H  0.76456230  0.31251028  0.66093274     0.08880
H2263       H  0.67347291  0.29052559  0.59716606     0.06900
Br2264     Br  0.71900394  0.35377506  0.58278462    -0.03710
C2265       C  0.67114102  0.15796233  0.72536713    -0.10340
C2266       C  0.65521752  0.17391481  0.72893554     0.05850
C2267       C  0.65247008  0.18531346  0.76126766    -0.04110
C2268       C  0.66219534  0.17735721  0.78927461    -0.08560
C2269       C  0.67500425  0.15845185  0.78563451     0.04970
C2270       C  0.68102032  0.15028920  0.75309129    -0.03590
Br2271     Br  0.70180194  0.12754905  0.74454168    -0.03280
H2272       H  0.67438612  0.14968205  0.70095130     0.08880
H2273       H  0.65813292  0.18448829  0.81395801     0.06900
Br2274     Br  0.63558472  0.21161687  0.76907712    -0.03710
C2275       C  0.65002805  0.13804230  0.52989413    -0.10340
C2276       C  0.66271847  0.16883852  0.54138344     0.05850
C2277       C  0.68221605  0.19311920  0.52031546    -0.04110
C2278       C  0.68784062  0.18610458  0.48746404    -0.08560
C2279       C  0.67491355  0.15501504  0.97581287     0.04970
C2280       C  0.65657107  0.13085472  0.99792246    -0.03590
Br2281     Br  0.63780210  0.08718337  0.98664834    -0.03280
H2282       H  0.63400748  0.11933397  0.54558919     0.08880
H2283       H  0.70241621  0.20486765  0.97114950     0.06900
Br2284     Br  0.70052276  0.23592691  0.53517403    -0.03710
C2285       C  0.68573681  0.01740788  0.52289997    -0.10340
C2286       C  0.65390805  0.49605065  0.52786671     0.05850
C2287       C  0.63319625  0.49175907  0.50248568    -0.04110
C2288       C  0.64456731  0.00580534  0.97232777    -0.08560
C2289       C  0.67601859  0.02644782  0.96700087     0.04970
C2290       C  0.69676350  0.03323501  0.49290643    -0.03590
Br2291     Br  0.73998263  0.06329980  0.48795518    -0.03280
H2292       H  0.70200416  0.02140214  0.54195811     0.08880
H2293       H  0.62827114  0.00129145  0.95319493     0.06900
Br2294     Br  0.58860453  0.46825661  0.50662835    -0.03710
C2295       C  0.63932813  0.00135269  0.77344712    -0.10340
C2296       C  0.67024951  0.01873967  0.78273866     0.05850
C2297       C  0.69339315  0.02094019  0.76028468    -0.04110
C2298       C  0.68529175  0.50735237  0.72800959    -0.08560
C2299       C  0.65416889  0.49070901  0.71847448     0.04970
C2300       C  0.63099180  0.98656130  0.74221489    -0.03590
Br2301     Br  0.58738681  0.96336644  0.73354555    -0.03280
H2302       H  0.62153673  0.00065348  0.79008461     0.08880
H2303       H  0.70321915  0.50997997  0.71036530     0.06900
Br2304     Br  0.73619145  0.04408214  0.77205998    -0.03710
C2305       C  0.62300542  0.05211942  0.62042528    -0.10340
C2306       C  0.59860959  0.02522103  0.63475965     0.05850
C2307       C  0.57328773  0.02695062  0.64871132    -0.04110
C2308       C  0.57297104  0.05470355  0.64852193    -0.08560
C2309       C  0.59751800  0.08167799  0.63470992     0.04970
C2310       C  0.62299907  0.08015550  0.62098413    -0.03590
Br2311     Br  0.66061531  0.11639626  0.60754579    -0.03280
H2312       H  0.64312185  0.05190499  0.61037149     0.08880
H2313       H  0.55349927  0.05535160  0.65993089     0.06900
Br2314     Br  0.53781517  0.49239184  0.66804700    -0.03710
C2315       C  0.61117881  0.29438084  0.60007568    -0.10340
C2316       C  0.59042289  0.27195229  0.62240602     0.05850
C2317       C  0.57203237  0.27960334  0.64364350    -0.04110
C2318       C  0.57397090  0.30836245  0.64118051    -0.08560
C2319       C  0.59356103  0.32990660  0.61749604     0.04970
C2320       C  0.61279618  0.32279066  0.59736297    -0.03590
Br2321     Br  0.64198150  0.35073049  0.56554735    -0.03280
H2322       H  0.62585353  0.28952689  0.58367935     0.08880
H2323       H  0.55888578  0.31322815  0.65687525     0.06900
Br2324     Br  0.54223913  0.25140044  0.67491776    -0.03710
C2325       C  0.70509034  0.42862245  0.58140665    -0.10340
C2326       C  0.68983258  0.42888504  0.61144078     0.05850
C2327       C  0.70351439  0.42975575  0.64166338    -0.04110
C2328       C  0.73142044  0.43003719  0.64109377    -0.08560
C2329       C  0.74664672  0.42984222  0.61095247     0.04970
C2330       C  0.73305895  0.42934210  0.58078129    -0.03590
Br2331     Br  0.75136436  0.43091708  0.53740905    -0.03280
H2332       H  0.69552820  0.42847554  0.55780916     0.08880
H2333       H  0.74134795  0.43056607  0.66458893     0.06900
Br2334     Br  0.68585608  0.43066408  0.68466184    -0.03710
C2335       C  0.97353150  0.40529792  0.60683289    -0.10340
C2336       C  0.98977285  0.41043769  0.63625843     0.05850
C2337       C  0.97742520  0.41481388  0.66699098    -0.04110
C2338       C  0.95026516  0.41500152  0.66747304    -0.08560
C2339       C  0.93499679  0.41176331  0.63814590     0.04970
C2340       C  0.94628441  0.40619408  0.60750518    -0.03590
Br2341     Br  0.92741744  0.40262987  0.56592952    -0.03280
H2342       H  0.98264047  0.40178411  0.58319843     0.08880
H2343       H  0.94134004  0.41857147  0.69124713     0.06900
Br2344     Br  0.49552748  0.42109704  0.71008457    -0.03710
C2345       C  0.52224960  0.16215724  0.97525043    -0.10340
C2346       C  0.99206543  0.15640669  0.97666475     0.05850
C2347       C  0.97923578  0.15958039  0.50709149    -0.04110
C2348       C  0.49596969  0.16618945  0.53620342    -0.08560
C2349       C  0.52548265  0.16963799  0.53520089     0.04970
C2350       C  0.53908378  0.16870966  0.50396661    -0.03590
Br2351     Br  0.58013115  0.17561972  0.49747975    -0.03280
H2352       H  0.53230215  0.15989084  0.95166595     0.08880
H2353       H  0.48558647  0.16807537  0.55966036     0.06900
Br2354     Br  0.94000086  0.15672342  0.50953539    -0.03710
C2355       C  0.48874511  0.12820921  0.76520287    -0.10340
C2356       C  0.96640977  0.13672546  0.76731689     0.05850
C2357       C  0.96517786  0.15445771  0.74235970    -0.04110
C2358       C  0.48738295  0.16449708  0.71656101    -0.08560
C2359       C  0.51094236  0.15757273  0.71619652     0.04970
C2360       C  0.51092872  0.13845018  0.74027004    -0.03590
Br2361     Br  0.53998601  0.12466938  0.74103120    -0.03280
H2362       H  0.48997417  0.11452893  0.78416726     0.08880
H2363       H  0.98699530  0.17864529  0.69756558     0.06900
Br2364     Br  0.93600120  0.16795937  0.74399394    -0.03710
C2365       C  0.88453360  0.50695790  0.98165762    -0.10340
C2366       C  0.88594111  0.03531230  0.98411429     0.05850
C2367       C  0.87393090  0.04338283  0.51243619    -0.04110
C2368       C  0.86224149  0.02344616  0.53896366    -0.08560
C2369       C  0.86134196  0.49504222  0.53679916     0.04970
C2370       C  0.87183255  0.48645737  0.00701249    -0.03590
Br2371     Br  0.86926680  0.44723515  0.99681509    -0.03280
H2372       H  0.89267390  0.50023567  0.95916538     0.08880
H2373       H  0.85387074  0.03016463  0.56119693     0.06900
Br2374     Br  0.87353962  0.08121846  0.51633136    -0.03710
C2375       C  0.89774027  0.50393626  0.74269425    -0.10340
C2376       C  0.86706085  0.48633696  0.73190883     0.05850
C2377       C  0.84378346  0.98768483  0.75154405    -0.04110
C2378       C  0.85171028  0.00608048  0.78118317    -0.08560
C2379       C  0.88262739  0.02440615  0.79127031     0.04970
C2380       C  0.90572105  0.02321696  0.77138420    -0.03590
Br2381     Br  0.94886924  0.04750572  0.78074426    -0.03280
H2382       H  0.91612008  0.50371206  0.72802962     0.08880
H2383       H  0.83365487  0.00704067  0.79572163     0.06900
Br2384     Br  0.80096483  0.96624626  0.73942642    -0.03710
C2385       C  0.53158633  0.07782253  0.90507147    -0.10340
C2386       C  0.53107001  0.10316363  0.89334530     0.05850
C2387       C  0.55876921  0.12837341  0.88090310    -0.04110
C2388       C  0.58615369  0.12756929  0.88021841    -0.08560
C2389       C  0.58653120  0.10189992  0.89183985     0.04970
C2390       C  0.55849991  0.07662998  0.90360100    -0.03590
Br2391     Br  0.55418216  0.03865693  0.91598005    -0.03280
H2392       H  0.51050611  0.05820534  0.91468506     0.08880
H2393       H  0.60741731  0.14754175  0.87152427     0.06900
Br2394     Br  0.56119993  0.16562179  0.86786472    -0.03710
C2395       C  0.82160675  0.10465866  0.84050641    -0.10340
C2396       C  0.82391681  0.08765880  0.86547102     0.05850
C2397       C  0.80040913  0.07519183  0.89046497    -0.04110
C2398       C  0.77537106  0.07944319  0.88962279    -0.08560
C2399       C  0.77253906  0.09555468  0.86418043     0.04970
C2400       C  0.79630815  0.10878069  0.83971258    -0.03590
Br2401     Br  0.79627250  0.13361038  0.80532759    -0.03280
H2402       H  0.83970453  0.11508411  0.82167302     0.08880
H2403       H  0.75722551  0.06878421  0.90836954     0.06900
Br2404     Br  0.79916077  0.05025433  0.92566164    -0.03710
C2405       C  0.97489699  0.33315822  0.49908492    -0.10340
C2406       C  0.99028065  0.34212964  0.96805048     0.05850
C2407       C  0.52223619  0.35394129  0.96598918    -0.04110
C2408       C  0.53850598  0.35900016  0.99512352    -0.08560
C2409       C  0.52351978  0.35278136  0.52658664     0.04970
C2410       C  0.99118876  0.33839028  0.52829570    -0.03590
Br2411     Br  0.96866495  0.32899444  0.56983911    -0.03280
H2412       H  0.95016766  0.32315906  0.50082890     0.08880
H2413       H  0.56347997  0.37017954  0.99344900     0.06900
Br2414     Br  0.54538157  0.36742581  0.92501528    -0.03710
C2415       C  0.52926828  0.36373234  0.74251744    -0.10340
C2416       C  0.51500560  0.35881049  0.71183124     0.05850
C2417       C  0.98317814  0.34901874  0.71188775    -0.04110
C2418       C  0.96786581  0.34869524  0.74199528    -0.08560
C2419       C  0.98282153  0.35555908  0.77247986     0.04970
C2420       C  0.51296924  0.36057068  0.77254034    -0.03590
Br2421     Br  0.53204258  0.36037249  0.81236407    -0.03280
H2422       H  0.55313068  0.36967964  0.74315892     0.08880
H2423       H  0.94424531  0.34325894  0.74151034     0.06900
Br2424     Br  0.95943606  0.33743931  0.67204892    -0.03710
C2425       C  0.94974398  0.47324003  0.85632768    -0.10340
C2426       C  0.92457522  0.44478066  0.86667056     0.05850
C2427       C  0.89784069  0.44415584  0.87946830    -0.04110
C2428       C  0.89705343  0.47157652  0.88214013    -0.08560
C2429       C  0.92240417  0.50035076  0.87228883     0.04970
C2430       C  0.94899592  0.50072546  0.85895902    -0.03590
Br2431     Br  0.98532349  0.03704826  0.84327849    -0.03280
H2432       H  0.97039080  0.47420968  0.84608677     0.08880
H2433       H  0.87619323  0.47017688  0.89227709     0.06900
Br2434     Br  0.86076176  0.40665500  0.89218529    -0.03710
C2435       C  0.93641373  0.23885539  0.91215378    -0.10460
C2436       C  0.91727694  0.24209244  0.89074827     0.05850
C2437       C  0.90106191  0.21902862  0.86580611    -0.04110
C2438       C  0.90490736  0.19358847  0.86198723    -0.08560
C2439       C  0.92567586  0.19128367  0.88190768     0.04970
C2440       C  0.94116079  0.21395177  0.90763308    -0.03590
Br2441     Br  0.96934734  0.21281460  0.93703511    -0.03280
H2442       H  0.94931845  0.25685399  0.93110398     0.08880
H2443       H  0.89265700  0.17626833  0.84224371     0.06900
Br2444     Br  0.87435679  0.22168860  0.83554857    -0.03710
C2445       C  0.55440071  0.43303974  0.86682598    -0.10340
C2446       C  0.52931400  0.42834276  0.88746474     0.05850
C2447       C  0.53481143  0.45120793  0.91276435    -0.04110
C2448       C  0.56403564  0.47870188  0.91512590    -0.08560
C2449       C  0.58808774  0.48496152  0.89187621     0.04970
C2450       C  0.58353074  0.46043083  0.86920081    -0.03590
Br2451     Br  0.61641117  0.46073915  0.84330940    -0.03280
H2452       H  0.55136403  0.41544629  0.84815126     0.08880
H2453       H  0.56788116  0.99533501  0.93540983     0.06900
Br2454     Br  0.00383832  0.44580025  0.94556285    -0.03710
C2455       C  0.77930560  0.21424100  0.84882668    -0.10340
C2456       C  0.77340730  0.19005481  0.86919604     0.05850
C2457       C  0.79524956  0.19565360  0.89333860    -0.04110
C2458       C  0.82217902  0.22522067  0.89696237    -0.08560
C2459       C  0.82790315  0.24974134  0.87690367     0.04970
C2460       C  0.80582491  0.24385935  0.85268954    -0.03590
Br2461     Br  0.80828769  0.27551655  0.82613257    -0.03280
H2462       H  0.76238439  0.21045309  0.83064333     0.08880
H2463       H  0.83882600  0.22899809  0.91547196     0.06900
Br2464     Br  0.79003309  0.16344449  0.92092934    -0.03710
C2465       C  0.83758527  0.35387402  0.97422825    -0.10340
C2466       C  0.85898256  0.34413038  0.97119717     0.05850
C2467       C  0.86634112  0.33488999  0.50040609    -0.04110
C2468       C  0.85639970  0.34005468  0.53196683    -0.08560
C2469       C  0.83831460  0.35359854  0.53520692     0.04970
C2470       C  0.82700326  0.35825435  0.00585691    -0.03590
Br2471     Br  0.79759959  0.37152942  0.00801827    -0.03280
H2472       H  0.83038629  0.35972203  0.95227268     0.08880
H2473       H  0.86465549  0.33550710  0.55403881     0.06900
Br2474     Br  0.88991089  0.31492527  0.49903389    -0.03710
C2475       C  0.85965022  0.34485497  0.72398312    -0.10340
C2476       C  0.84932367  0.36588231  0.72229401     0.05850
C2477       C  0.84487169  0.37905075  0.75251169    -0.04110
C2478       C  0.85297422  0.37311145  0.78288261    -0.08560
C2479       C  0.86547097  0.35401262  0.78421910     0.04970
C2480       C  0.86753174  0.33877824  0.75454280    -0.03590
Br2481     Br  0.87931709  0.30826466  0.75483322    -0.03280
H2482       H  0.86266263  0.33388922  0.70133609     0.08880
H2483       H  0.85047786  0.38441849  0.80555148     0.06900
Br2484     Br  0.82716917  0.40480107  0.75438600    -0.03710
O2485       O  0.94460552  0.91532682  0.33970184    -0.81330
O2486       O  0.95291021  0.84880808  0.44406097    -0.81350
O2487       O  0.86376478  0.83814191  0.41063861    -0.81360
O2488       O  0.99584767  0.87544047  0.36764295    -0.81300
O2489       O  0.90384991  0.85448011  0.44029491    -0.81420
O2490       O  0.97400058  0.90197271  0.38560753    -0.81340
O2491       O  0.97445606  0.82873157  0.41124091    -0.81330
O2492       O  0.91016331  0.89237570  0.37999910    -0.81360
C2493       C  0.92634077  0.91623880  0.36170541     1.08360
C2494       C  0.97245831  0.84067103  0.43929501     1.08250
C2495       C  0.87607122  0.84647162  0.43910782     1.08390
C2496       C  0.99802674  0.90021296  0.38099378     1.08260
O2497       O  0.96853367  0.87917716  0.31798769    -0.81330
O2498       O  0.86779256  0.78967599  0.41145846    -0.81400
O2499       O  0.86226608  0.84860172  0.34319222    -0.81340
O2500       O  0.92743095  0.78644456  0.36437238    -0.81320
O2501       O  0.91825016  0.78540863  0.41837073    -0.81370
O2502       O  0.90509880  0.85592413  0.31777082    -0.81340
O2503       O  0.95059052  0.82972951  0.31849624    -0.81300
O2504       O  0.86819882  0.79932067  0.35853097    -0.81370
Co2505     Co  0.93904502  0.87781620  0.35478414     1.51530
Co2506     Co  0.91164257  0.82136937  0.42634750     1.51690
Co2507     Co  0.89080851  0.84461041  0.36857972     1.51570
Co2508     Co  0.95977117  0.83048873  0.36573160     1.51470
O2509       O  0.92683589  0.84039151  0.38130223    -1.43260
C2510       C  0.96600033  0.85477924  0.30390931     1.08290
C2511       C  0.85631449  0.78101487  0.38234588     1.08380
C2512       C  0.87784988  0.85240398  0.31641451     1.08320
C2513       C  0.91955025  0.77218174  0.39102388     1.08290
O2514       O  0.92100838  0.62307618  0.30062569    -0.81330
O2515       O  0.94266165  0.55591537  0.37363914    -0.81350
O2516       O  0.49225622  0.61261031  0.37297972    -0.81360
O2517       O  0.87005222  0.54018729  0.34400556    -0.81300
O2518       O  0.98425180  0.59039566  0.42156223    -0.81420
O2519       O  0.91562605  0.57091689  0.32289562    -0.81340
O2520       O  0.89549072  0.52569130  0.39170234    -0.81330
O2521       O  0.96383224  0.63137684  0.32460749    -0.81360
C2522       C  0.94917263  0.63063763  0.29879217     1.08360
C2523       C  0.92013305  0.52875507  0.37848045     1.08250
C2524       C  0.50165465  0.60287354  0.39645737     1.08390
C2525       C  0.89008041  0.54575274  0.32107958     1.08260
O2526       O  0.86826294  0.58808598  0.34016341    -0.81330
O2527       O  0.95066942  0.61591786  0.44665340    -0.81400
O2528       O  0.95648132  0.66815928  0.37887939    -0.81340
O2529       O  0.88314072  0.56290953  0.44087349    -0.81320
O2530       O  0.92313044  0.55729573  0.44170043    -0.81370
O2531       O  0.90954638  0.64066967  0.36175152    -0.81340
O2532       O  0.85839225  0.57821357  0.39278474    -0.81300
O2533       O  0.98574018  0.65341424  0.41925275    -0.81370
Co2534     Co  0.91453126  0.60690394  0.34350921     1.51530
Co2535     Co  0.94803383  0.58847362  0.40825667     1.51690
Co2536     Co  0.96803341  0.63593556  0.37504252     1.51570
Co2537     Co  0.87943493  0.55486583  0.39229987     1.51470
O2538       O  0.92044506  0.59718897  0.38745906    -1.43260
C2539       C  0.85131538  0.58432463  0.36596289     1.08290
C2540       C  0.97406880  0.64239599  0.44663271     1.08380
C2541       C  0.93082744  0.66542454  0.37431331     1.08320
C2542       C  0.89873009  0.55424794  0.45530999     1.08290
O2543       O  0.52584209  0.89702514  0.11318951    -0.81330
O2544       O  0.65598592  0.98071316  0.08402050    -0.81350
O2545       O  0.58939510  0.97904132  0.16049635    -0.81360
O2546       O  0.56491213  0.89613764  0.05192589    -0.81300
O2547       O  0.61648980  0.99087124  0.11555332    -0.81420
O2548       O  0.53899329  0.85699384  0.08387608    -0.81340
O2549       O  0.61662242  0.95029126  0.05219015    -0.81330
O2550       O  0.53771651  0.92545628  0.15837580    -0.81360
C2551       C  0.51926194  0.91131539  0.13525545     1.08360
C2552       C  0.64201618  0.97522772  0.05647916     1.08250
C2553       C  0.60120552  0.99684980  0.13666099     1.08390
C2554       C  0.54303865  0.86886100  0.05576538     1.08260
O2555       O  0.58276650  0.86926232  0.13613492    -0.81330
O2556       O  0.65913688  0.99260673  0.15842011    -0.81400
O2557       O  0.56281102  0.89124964  0.18184675    -0.81340
O2558       O  0.64883603  0.92541138  0.08126998    -0.81320
O2559       O  0.64901706  0.93622635  0.13405759    -0.81370
O2560       O  0.52356515  0.85418006  0.15297653    -0.81340
O2561       O  0.59518815  0.86853723  0.08373390    -0.81300
O2562       O  0.62263842  0.94912970  0.18085798    -0.81370
Co2563     Co  0.55541689  0.88496779  0.12559080     1.51530
Co2564     Co  0.63050714  0.96202655  0.12632571     1.51690
Co2565     Co  0.57988942  0.93513645  0.16472557     1.51570
Co2566     Co  0.60521529  0.91102632  0.07046559     1.51470
O2567       O  0.59044213  0.92556716  0.11256424    -1.43260
C2568       C  0.59138673  0.85787164  0.11248236     1.08290
C2569       C  0.64537246  0.97733813  0.18440997     1.08380
C2570       C  0.53446770  0.86794242  0.18095950     1.08320
C2571       C  0.66080642  0.92951885  0.10932288     1.08290
O2572       O  0.68822161  0.65726057  0.34293388    -0.81330
O2573       O  0.63833218  0.52415444  0.37109683    -0.81350
O2574       O  0.67172892  0.56235473  0.30696095    -0.81360
O2575       O  0.62068424  0.58846153  0.41477840    -0.81300
O2576       O  0.68883266  0.54003313  0.33766309    -0.81420
O2577       O  0.63842311  0.61971390  0.37435350    -0.81340
O2578       O  0.62162279  0.53622982  0.41570443    -0.81330
O2579       O  0.67081067  0.61549871  0.31041660    -0.81360
C2580       C  0.67800096  0.64340141  0.31464501     1.08360
C2581       C  0.61732895  0.51648573  0.39271093     1.08250
C2582       C  0.67746045  0.54121530  0.31063783     1.08390
C2583       C  0.61643407  0.60298759  0.39334385     1.08260
O2584       O  0.68276368  0.66313366  0.41644463    -0.81330
O2585       O  0.72582481  0.58940624  0.38751963    -0.81400
O2586       O  0.73275231  0.64869973  0.33727850    -0.81340
O2587       O  0.68651933  0.56990500  0.43628492    -0.81320
O2588       O  0.68508232  0.53018268  0.40808279    -0.81370
O2589       O  0.72609574  0.64885767  0.39094301    -0.81340
O2590       O  0.68573607  0.62515257  0.43609527    -0.81300
O2591       O  0.73282697  0.59502683  0.33414356    -0.81370
Co2592     Co  0.68122859  0.63212461  0.38401407     1.51530
Co2593     Co  0.68142834  0.55817686  0.38085132     1.51690
Co2594     Co  0.69984581  0.60425058  0.32506480     1.51570
Co2595     Co  0.65550223  0.58099742  0.42051433     1.51470
O2596       O  0.67323197  0.59032241  0.36837421    -1.43260
C2597       C  0.68095021  0.64761287  0.44135773     1.08290
C2598       C  0.74302210  0.59473097  0.36209731     1.08380
C2599       C  0.74328953  0.66041518  0.36587236     1.08320
C2600       C  0.68435359  0.54324644  0.43595201     1.08290
O2601       O  0.53489828  0.61708955  0.15996587    -0.81330
O2602       O  0.62237801  0.67033390  0.07107154    -0.81350
O2603       O  0.53068415  0.67910227  0.09388863    -0.81360
O2604       O  0.60641040  0.63050348  0.11582232    -0.81300
O2605       O  0.56544188  0.67149262  0.06683764    -0.81420
O2606       O  0.58926520  0.61832042  0.16673354    -0.81340
O2607       O  0.66329829  0.67995498  0.09995665    -0.81330
O2608       O  0.53871716  0.63155641  0.10886232    -0.81360
C2609       C  0.52496850  0.61126129  0.13041476     1.08360
C2610       C  0.64980834  0.67456593  0.07215918     1.08250
C2611       C  0.54156375  0.67447161  0.06658130     1.08390
C2612       C  0.59732852  0.61142218  0.13881753     1.08260
O2613       O  0.61522168  0.67721016  0.20394918    -0.81330
O2614       O  0.59930616  0.73367897  0.09584449    -0.81400
O2615       O  0.52684130  0.66450372  0.16001717    -0.81340
O2616       O  0.65641649  0.71957378  0.14544031    -0.81320
O2617       O  0.65032520  0.73265132  0.09816967    -0.81370
O2618       O  0.56177758  0.67691128  0.19695443    -0.81340
O2619       O  0.64505759  0.66806986  0.17025883    -0.81300
O2620       O  0.57201186  0.71983408  0.14048648    -0.81370
Co2621     Co  0.57649155  0.64957501  0.17929631     1.51530
Co2622     Co  0.60731810  0.69880075  0.08932077     1.51690
Co2623     Co  0.55767960  0.67669121  0.12306847     1.51570
Co2624     Co  0.63035121  0.67622419  0.12856902     1.51470
O2625       O  0.59415802  0.67881429  0.13988066    -1.43260
C2626       C  0.63841521  0.67416613  0.19954542     1.08290
C2627       C  0.58732789  0.74059811  0.12019225     1.08380
C2628       C  0.53449796  0.66851314  0.19001559     1.08320
C2629       C  0.66494547  0.73994290  0.12467601     1.08290
O2630       O  0.91098683  0.93693437  0.16359706    -0.81330
O2631       O  0.85208417  0.95123448  0.06303252    -0.81350
O2632       O  0.82867449  0.85863665  0.09498135    -0.81360
O2633       O  0.88375305  0.99708192  0.13560817    -0.81300
O2634       O  0.84847225  0.89884097  0.06553577    -0.81420
O2635       O  0.90255064  0.96822301  0.11664960    -0.81340
O2636       O  0.83786846  0.98010532  0.09108665    -0.81330
O2637       O  0.88492487  0.90213084  0.12345922    -0.81360
C2638       C  0.90920727  0.91706928  0.14165792     1.08360
C2639       C  0.84998717  0.97477722  0.06522448     1.08250
C2640       C  0.83851953  0.87054342  0.06686915     1.08390
C2641       C  0.90622064  0.99492402  0.12272470     1.08260
O2642       O  0.88276479  0.96730649  0.18410101    -0.81330
O2643       O  0.78487123  0.87054530  0.09417306    -0.81400
O2644       O  0.84044703  0.85857581  0.16304932    -0.81340
O2645       O  0.79170218  0.94005988  0.13876147    -0.81320
O2646       O  0.78838366  0.92555015  0.08585000    -0.81370
O2647       O  0.85266316  0.90427106  0.18619691    -0.81340
O2648       O  0.83588524  0.95776913  0.18489699    -0.81300
O2649       O  0.79518220  0.87037882  0.14706375    -0.81370
Co2650     Co  0.87597435  0.93533209  0.14820793     1.51530
Co2651     Co  0.81975782  0.91229880  0.07915359     1.51690
Co2652     Co  0.83915110  0.88821720  0.13632717     1.51570
Co2653     Co  0.83711939  0.96593060  0.13736845     1.51470
O2654       O  0.83907859  0.92692579  0.12371972    -1.43260
C2655       C  0.86125077  0.96901400  0.19924326     1.08290
C2656       C  0.77647124  0.85956941  0.12315569     1.08380
C2657       C  0.84693635  0.87627684  0.18911373     1.08320
C2658       C  0.77685782  0.93136450  0.11198511     1.08290
C2659       C  0.99421717  0.55337719  0.12114128    -0.10340
C2660       C  0.99534452  0.58179100  0.12254303     0.05850
C2661       C  0.96734850  0.58125811  0.11983033    -0.04110
C2662       C  0.93897282  0.55281432  0.11813074    -0.08560
C2663       C  0.93742512  0.52408911  0.11845139     0.04970
C2664       C  0.96591918  0.52481996  0.11849871    -0.03590
Br2665     Br  0.96883560  0.48838234  0.11653115    -0.03280
H2666       H  0.51552178  0.55337800  0.12265273     0.08880
H2667       H  0.91783202  0.55327249  0.11752018     0.06900
Br2668     Br  0.96600808  0.61860288  0.12046191    -0.03710
C2669       C  0.74440711  0.80804453  0.14762241    -0.10340
C2670       C  0.74612891  0.83103152  0.12785772     0.05850
C2671       C  0.71992010  0.82448705  0.11013962    -0.04110
C2672       C  0.69317819  0.79521797  0.11149495    -0.08560
C2673       C  0.69203571  0.77157341  0.12943098     0.04970
C2674       C  0.71786096  0.77829932  0.14815672    -0.03590
Br2675     Br  0.72004967  0.74732452  0.17150087    -0.03280
H2676       H  0.76456800  0.81250783  0.16093087     0.08880
H2677       H  0.67347604  0.79052743  0.09717227     0.06900
Br2678     Br  0.71901114  0.85377262  0.08278133    -0.03710
C2679       C  0.67113701  0.65795799  0.22537221    -0.10340
C2680       C  0.65521353  0.67391046  0.22893850     0.05850
C2681       C  0.65246763  0.68531248  0.26126938    -0.04110
C2682       C  0.66219452  0.67735966  0.28927768    -0.08560
C2683       C  0.67500358  0.65845439  0.28564015     0.04970
C2684       C  0.68101796  0.65028825  0.25309770    -0.03590
Br2685     Br  0.70179846  0.62754667  0.24455109    -0.03280
H2686       H  0.67438064  0.64967503  0.20095729     0.08880
H2687       H  0.65813290  0.68449300  0.31396026     0.06900
Br2688     Br  0.63558207  0.71161606  0.26907527    -0.03710
C2689       C  0.65003899  0.63804847  0.02990330    -0.10340
C2690       C  0.66272573  0.66884477  0.04139045     0.05850
C2691       C  0.68221953  0.69312534  0.02032068    -0.04110
C2692       C  0.68784349  0.68611047  0.98746917    -0.08560
C2693       C  0.67491218  0.65501674  0.47582127     0.04970
C2694       C  0.65657311  0.63085708  0.49793290    -0.03590
Br2695     Br  0.63780154  0.58718533  0.48665859    -0.03280
H2696       H  0.63402199  0.61934017  0.04560053     0.08880
H2697       H  0.70241099  0.70486908  0.47115442     0.06900
Br2698     Br  0.70052198  0.73593315  0.03517732    -0.03710
C2699       C  0.68574951  0.51737626  0.02288349    -0.10340
C2700       C  0.65390710  0.99603386  0.02784872     0.05850
C2701       C  0.63320593  0.99170006  0.00243330    -0.04110
C2702       C  0.64454592  0.50585757  0.47237478    -0.08560
C2703       C  0.67600274  0.52645134  0.46701134     0.04970
C2704       C  0.69676876  0.53319790  0.99288639    -0.03590
Br2705     Br  0.74000015  0.56319833  0.98788837    -0.03280
H2706       H  0.70202655  0.52133011  0.04191256     0.08880
H2707       H  0.62823912  0.50137292  0.45326670     0.06900
Br2708     Br  0.58861003  0.96813541  0.00651274    -0.03710
C2709       C  0.63931065  0.50139807  0.27342764    -0.10340
C2710       C  0.67022695  0.51873752  0.28274341     0.05850
C2711       C  0.69336638  0.52089350  0.26031183    -0.04110
C2712       C  0.68531155  0.00738528  0.22799000    -0.08560
C2713       C  0.65418332  0.99069447  0.21847542     0.04970
C2714       C  0.63097641  0.48661414  0.24219271    -0.03590
Br2715     Br  0.58737744  0.46347429  0.23349776    -0.03280
H2716       H  0.62152384  0.50072725  0.29005126     0.08880
H2717       H  0.70324176  0.01004569  0.21033190     0.06900
Br2718     Br  0.73615466  0.54395473  0.27212845    -0.03710
C2719       C  0.62300628  0.55212308  0.12041568    -0.10340
C2720       C  0.59859730  0.52521626  0.13472302     0.05850
C2721       C  0.57326342  0.52693773  0.14864960    -0.04110
C2722       C  0.57295155  0.55469371  0.14847187    -0.08560
C2723       C  0.59751230  0.58167683  0.13468983     0.04970
C2724       C  0.62300163  0.58016028  0.12098108    -0.03590
Br2725     Br  0.66062682  0.61640857  0.10757492    -0.03280
H2726       H  0.64313018  0.55191349  0.11037959     0.08880
H2727       H  0.55347213  0.55533665  0.15986564     0.06900
Br2728     Br  0.53786501  0.99241881  0.16815118    -0.03710
C2729       C  0.61117807  0.79437876  0.10008101    -0.10340
C2730       C  0.59042060  0.77195028  0.12241055     0.05850
C2731       C  0.57202818  0.77960071  0.14364519    -0.04110
C2732       C  0.57396695  0.80835964  0.14118062    -0.08560
C2733       C  0.59355895  0.82990384  0.11749699     0.04970
C2734       C  0.61279525  0.82278808  0.09736621    -0.03590
Br2735     Br  0.64198170  0.85072719  0.06555100    -0.03280
H2736       H  0.62585410  0.78952504  0.08368667     0.08880
H2737       H  0.55888079  0.81322529  0.15687351     0.06900
Br2738     Br  0.54223217  0.75139714  0.17491707    -0.03710
C2739       C  0.70509497  0.92861290  0.08139335    -0.10340
C2740       C  0.68984127  0.92888380  0.11142762     0.05850
C2741       C  0.70352759  0.92976293  0.14165046    -0.04110
C2742       C  0.73143320  0.93004403  0.14108123    -0.08560
C2743       C  0.74665588  0.92984110  0.11094032     0.04970
C2744       C  0.73306405  0.92933262  0.08076841    -0.03590
Br2745     Br  0.75136371  0.93089415  0.03739574    -0.03280
H2746       H  0.69552909  0.92845912  0.05779572     0.08880
H2747       H  0.74136350  0.93057946  0.16457693     0.06900
Br2748     Br  0.68587796  0.93068527  0.18465020    -0.03710
C2749       C  0.97354961  0.90531668  0.10684624    -0.10340
C2750       C  0.98979019  0.91045562  0.13627222     0.05850
C2751       C  0.97743936  0.91482569  0.16700520    -0.04110
C2752       C  0.95027497  0.91500546  0.16748774    -0.08560
C2753       C  0.93500538  0.91176515  0.13816050     0.04970
C2754       C  0.94629856  0.90620523  0.10751885    -0.03590
Br2755     Br  0.92743345  0.90264371  0.06594262    -0.03280
H2756       H  0.98266109  0.90180730  0.08321134     0.08880
H2757       H  0.94134651  0.91856956  0.19126236     0.06900
Br2758     Br  0.49553792  0.92110046  0.21009875    -0.03710
C2759       C  0.52224492  0.66215601  0.47525381    -0.10340
C2760       C  0.99206043  0.65640489  0.47666869     0.05850
C2761       C  0.97923777  0.65958277  0.00709379    -0.04110
C2762       C  0.49597109  0.66619070  0.03620596    -0.08560
C2763       C  0.52548470  0.66964082  0.03520331     0.04970
C2764       C  0.53908719  0.66871557  0.00396895    -0.03590
Br2765     Br  0.58013550  0.67562802  0.99748256    -0.03280
H2766       H  0.53229756  0.65989056  0.45166898     0.08880
H2767       H  0.48558670  0.66807406  0.05966317     0.06900
Br2768     Br  0.94000188  0.65672368  0.00953798    -0.03710
C2769       C  0.48873957  0.62820734  0.26520620    -0.10340
C2770       C  0.96640651  0.63672670  0.26731965     0.05850
C2771       C  0.96517610  0.65445908  0.24236164    -0.04110
C2772       C  0.48738083  0.66449580  0.21656262    -0.08560
C2773       C  0.51093786  0.65756805  0.21619823     0.04970
C2774       C  0.51092200  0.63844466  0.24027221    -0.03590
Br2775     Br  0.53997440  0.62465758  0.24103207    -0.03280
H2776       H  0.48996738  0.61452713  0.28417153     0.08880
H2777       H  0.98699479  0.67864473  0.19756684     0.06900
Br2778     Br  0.93600234  0.66796442  0.24399567    -0.03710
C2779       C  0.88452650  0.00695068  0.48164839    -0.10340
C2780       C  0.88593663  0.53531584  0.48411793     0.05850
C2781       C  0.87393068  0.54338698  0.01244056    -0.04110
C2782       C  0.86223746  0.52344908  0.03896696    -0.08560
C2783       C  0.86135069  0.99503885  0.03679561     0.04970
C2784       C  0.87182929  0.98645143  0.50700499    -0.03590
Br2785     Br  0.86925936  0.94722744  0.49680701    -0.03280
H2786       H  0.89266294  0.00022711  0.45915406     0.08880
H2787       H  0.85386240  0.53016577  0.06119800     0.06900
Br2788     Br  0.87353674  0.58122126  0.01633289    -0.03710
C2789       C  0.89773983  0.00393590  0.24269332    -0.10340
C2790       C  0.86706024  0.98633354  0.23190894     0.05850
C2791       C  0.84378604  0.48768482  0.25154296    -0.04110
C2792       C  0.85171226  0.50608028  0.28118221    -0.08560
C2793       C  0.88262902  0.52440617  0.29127013     0.04970
C2794       C  0.90572304  0.52321694  0.27138451    -0.03590
Br2795     Br  0.94887066  0.54750496  0.28074699    -0.03280
H2796       H  0.91612040  0.00371307  0.22802882     0.08880
H2797       H  0.83365650  0.50704025  0.29572017     0.06900
Br2798     Br  0.80096738  0.46624685  0.23942529    -0.03710
C2799       C  0.53158339  0.57782677  0.40507869    -0.10340
C2800       C  0.53106611  0.60316596  0.39334809     0.05850
C2801       C  0.55876446  0.62837428  0.38090241    -0.04110
C2802       C  0.58614894  0.62757032  0.38021787    -0.08560
C2803       C  0.58652742  0.60190306  0.39184392     0.04970
C2804       C  0.55849718  0.57663468  0.40360981    -0.03590
Br2805     Br  0.55418144  0.53866502  0.41600102    -0.03280
H2806       H  0.51050391  0.55821094  0.41469545     0.08880
H2807       H  0.60741197  0.64754160  0.37152073     0.06900
Br2808     Br  0.56119457  0.66562119  0.36785972    -0.03710
C2809       C  0.82159829  0.60464886  0.34050078    -0.10340
C2810       C  0.82391195  0.58765443  0.36546889     0.05850
C2811       C  0.80040702  0.57519137  0.39046602    -0.04110
C2812       C  0.77536911  0.57944302  0.38962480    -0.08560
C2813       C  0.77253404  0.59555037  0.36418014     0.04970
C2814       C  0.79629934  0.60877032  0.33970725    -0.03590
Br2815     Br  0.79625760  0.63358893  0.30531332    -0.03280
H2816       H  0.83969336  0.61507020  0.32166397     0.08880
H2817       H  0.75722579  0.56878719  0.40837417     0.06900
Br2818     Br  0.79916214  0.55025856  0.42566602    -0.03710
C2819       C  0.97490306  0.83315647  0.99908405    -0.10340
C2820       C  0.99028285  0.84213748  0.46804888     0.05850
C2821       C  0.52224196  0.85396864  0.46599107    -0.04110
C2822       C  0.53851103  0.85902947  0.49512638    -0.08560
C2823       C  0.52352478  0.85278718  0.02659091     0.04970
C2824       C  0.99119304  0.83839067  0.02829670    -0.03590
Br2825     Br  0.96866574  0.82899203  0.06983798    -0.03280
H2826       H  0.95017303  0.82315192  0.00082518     0.08880
H2827       H  0.56348627  0.87022129  0.49345446     0.06900
Br2828     Br  0.54538994  0.86747638  0.42502179    -0.03710
C2829       C  0.52926244  0.86372608  0.24251966    -0.10340
C2830       C  0.51500323  0.85880871  0.21183226     0.05850
C2831       C  0.98317608  0.84901920  0.21188598    -0.04110
C2832       C  0.96786112  0.84869315  0.24199255    -0.08560
C2833       C  0.98281379  0.85555263  0.27247859     0.04970
C2834       C  0.51296088  0.86056240  0.27254107    -0.03590
Br2835     Br  0.53203025  0.86035997  0.31236579    -0.03280
H2836       H  0.55312418  0.86967164  0.24316328     0.08880
H2837       H  0.94424121  0.84325879  0.24150567     0.06900
Br2838     Br  0.95943831  0.83744746  0.17204459    -0.03710
C2839       C  0.94973892  0.97323812  0.35632266    -0.10340
C2840       C  0.92456996  0.94477902  0.36666576     0.05850
C2841       C  0.89783504  0.94415429  0.37946192    -0.04110
C2842       C  0.89704770  0.97157495  0.38213224    -0.08560
C2843       C  0.92239893  0.00034911  0.37228146     0.04970
C2844       C  0.94899097  0.00072362  0.35895299    -0.03590
Br2845     Br  0.98532237  0.53704864  0.34328559    -0.03280
H2846       H  0.97038598  0.97420758  0.34608288     0.08880
H2847       H  0.87618725  0.97017546  0.39226812     0.06900
Br2848     Br  0.86075597  0.90665365  0.39217923    -0.03710
C2849       C  0.93640534  0.73885290  0.41216183    -0.10460
C2850       C  0.91726979  0.74209122  0.39075576     0.05850
C2851       C  0.90105345  0.71902693  0.36581435    -0.04110
C2852       C  0.90489788  0.69358607  0.36199551    -0.08560
C2853       C  0.92566651  0.69128083  0.38191533     0.04970
C2854       C  0.94115120  0.71394846  0.40764135    -0.03590
Br2855     Br  0.96933649  0.71281017  0.43704432    -0.03280
H2856       H  0.94931052  0.75685138  0.43111197     0.08880
H2857       H  0.89264716  0.67626612  0.34225196     0.06900
Br2858     Br  0.87434833  0.72168740  0.33555726    -0.03710
C2859       C  0.55440385  0.93302894  0.36683511    -0.10340
C2860       C  0.52931256  0.92833917  0.38746308     0.05850
C2861       C  0.53480750  0.95120737  0.41275799    -0.04110
C2862       C  0.56403286  0.97869946  0.41512278    -0.08560
C2863       C  0.58808847  0.98495425  0.39188013     0.04970
C2864       C  0.58353534  0.96041910  0.36921455    -0.03590
Br2865     Br  0.61642520  0.96071842  0.34335177    -0.03280
H2866       H  0.55137159  0.91543484  0.34817244     0.08880
H2867       H  0.56787888  0.49533151  0.43541723     0.06900
Br2868     Br  0.00382988  0.94580687  0.44554753    -0.03710
C2869       C  0.77929851  0.71424354  0.34884094    -0.10340
C2870       C  0.77340275  0.69005619  0.36920693     0.05850
C2871       C  0.79524643  0.69565425  0.39334741    -0.04110
C2872       C  0.82217580  0.72522150  0.39697119    -0.08560
C2873       C  0.82789810  0.74974282  0.37691459     0.04970
C2874       C  0.80581742  0.74386195  0.35270407    -0.03590
Br2875     Br  0.80827629  0.77552071  0.32615308    -0.03280
H2876       H  0.76237572  0.71045630  0.33065997     0.08880
H2877       H  0.83882439  0.72899838  0.41547849     0.06900
Br2878     Br  0.79003204  0.66344379  0.42093455    -0.03710
C2879       C  0.83758515  0.85387190  0.47423626    -0.10340
C2880       C  0.85898610  0.84413305  0.47120229     0.05850
C2881       C  0.86635532  0.83489414  0.00040970    -0.04110
C2882       C  0.85641366  0.84005686  0.03197088    -0.08560
C2883       C  0.83832399  0.85359548  0.03521206     0.04970
C2884       C  0.82700418  0.85825041  0.50586627    -0.03590
Br2885     Br  0.79759657  0.87152042  0.50803220    -0.03280
H2886       H  0.83038259  0.85971786  0.45228189     0.08880
H2887       H  0.86467246  0.83551187  0.05404228     0.06900
Br2888     Br  0.88992929  0.81493408  0.99903579    -0.03710
C2889       C  0.85964159  0.84484665  0.22398871    -0.10340
C2890       C  0.84931504  0.86587383  0.22229849     0.05850
C2891       C  0.84486067  0.87904143  0.25251538    -0.04110
C2892       C  0.85296217  0.87310237  0.28288695    -0.08560
C2893       C  0.86546035  0.85400489  0.28422434     0.04970
C2894       C  0.86752233  0.83877039  0.25454886    -0.03590
Br2895     Br  0.87931024  0.80825877  0.25484075    -0.03280
H2896       H  0.86265563  0.83388146  0.20134214     0.08880
H2897       H  0.85046489  0.88440936  0.30555536     0.06900
Br2898     Br  0.82715789  0.90479151  0.25438733    -0.03710
O2899       O  0.94460855  0.91532740  0.83970154    -0.81330
O2900       O  0.95291330  0.84880882  0.94406068    -0.81350
O2901       O  0.86376787  0.83814243  0.91063835    -0.81360
O2902       O  0.99585110  0.87544149  0.86764261    -0.81300
O2903       O  0.90385284  0.85448067  0.94029491    -0.81420
O2904       O  0.97400403  0.90197375  0.88560716    -0.81340
O2905       O  0.97445934  0.82873247  0.91124062    -0.81330
O2906       O  0.91016651  0.89237619  0.87999899    -0.81360
C2907       C  0.92634382  0.91623924  0.86170524     1.08360
C2908       C  0.97246132  0.84067163  0.93929479     1.08250
C2909       C  0.87607413  0.84647214  0.93910766     1.08390
C2910       C  0.99803025  0.90021408  0.88099326     1.08260
O2911       O  0.96853676  0.87917797  0.81798751    -0.81330
O2912       O  0.86779569  0.78967662  0.91145806    -0.81400
O2913       O  0.86226924  0.84860234  0.84319207    -0.81340
O2914       O  0.92743431  0.78644551  0.86437213    -0.81320
O2915       O  0.91825339  0.78540949  0.91837045    -0.81370
O2916       O  0.90510190  0.85592489  0.81777051    -0.81340
O2917       O  0.95059354  0.82973033  0.81849621    -0.81300
O2918       O  0.86820224  0.79932139  0.85853057    -0.81370
Co2919     Co  0.93904821  0.87781699  0.85478393     1.51530
Co2920     Co  0.91164567  0.82137008  0.92634727     1.51690
Co2921     Co  0.89081174  0.84461105  0.86857950     1.51570
Co2922     Co  0.95977448  0.83048968  0.86573139     1.51470
O2923       O  0.92683917  0.84039235  0.88130209    -1.43260
C2924       C  0.96600322  0.85477998  0.80390919     1.08290
C2925       C  0.85631775  0.78101555  0.88234540     1.08380
C2926       C  0.87785298  0.85240478  0.81641429     1.08320
C2927       C  0.91955354  0.77218266  0.89102360     1.08290
O2928       O  0.92100854  0.62307610  0.80062840    -0.81330
O2929       O  0.94266491  0.55591631  0.87364105    -0.81350
O2930       O  0.49225851  0.61261126  0.87298009    -0.81360
O2931       O  0.87005376  0.54018677  0.84400890    -0.81300
O2932       O  0.98425567  0.59039797  0.92156327    -0.81420
O2933       O  0.91562701  0.57091678  0.82289774    -0.81340
O2934       O  0.89549430  0.52569178  0.89170491    -0.81330
O2935       O  0.96383279  0.63137488  0.82460759    -0.81360
C2936       C  0.94917248  0.63063666  0.79879335     1.08360
C2937       C  0.92013683  0.52875590  0.87848305     1.08250
C2938       C  0.50165785  0.60287563  0.89645789     1.08390
C2939       C  0.89008124  0.54575275  0.82108200     1.08260
O2940       O  0.86826422  0.58808533  0.84016664    -0.81330
O2941       O  0.95067282  0.61591973  0.94665414    -0.81400
O2942       O  0.95648363  0.66815981  0.87887793    -0.81340
O2943       O  0.88314451  0.56291034  0.94087627    -0.81320
O2944       O  0.92313479  0.55729742  0.94170250    -0.81370
O2945       O  0.90954726  0.64066909  0.86175486    -0.81340
O2946       O  0.85839392  0.57821279  0.89278801    -0.81300
O2947       O  0.98574256  0.65341582  0.91925220    -0.81370
Co2948     Co  0.91453242  0.60690380  0.84351171     1.51530
Co2949     Co  0.94803708  0.58847494  0.90825809     1.51690
Co2950     Co  0.96803528  0.63593579  0.87504244     1.51570
Co2951     Co  0.87943758  0.55486579  0.89230280     1.51470
O2952       O  0.92044733  0.59718917  0.88746095    -1.43260
C2953       C  0.85131701  0.58432415  0.86596630     1.08290
C2954       C  0.97407179  0.64239812  0.94663253     1.08380
C2955       C  0.93082927  0.66542469  0.87431413     1.08320
C2956       C  0.89873449  0.55424934  0.95531249     1.08290
O2957       O  0.52584185  0.89702565  0.61318892    -0.81330
O2958       O  0.65598549  0.98071389  0.58402115    -0.81350
O2959       O  0.58939391  0.97904156  0.66049600    -0.81360
O2960       O  0.56491234  0.89613847  0.55192450    -0.81300
O2961       O  0.61648958  0.99087221  0.61555369    -0.81420
O2962       O  0.53899326  0.85699489  0.58387501    -0.81340
O2963       O  0.61662252  0.95029218  0.55218990    -0.81330
O2964       O  0.53771594  0.92545613  0.65837561    -0.81360
C2965       C  0.51926144  0.91131543  0.63525517     1.08360
C2966       C  0.64201585  0.97522889  0.55647989     1.08250
C2967       C  0.60120479  0.99685040  0.63666103     1.08390
C2968       C  0.54303844  0.86886206  0.55576431     1.08260
O2969       O  0.58276699  0.86926357  0.63613373    -0.81330
O2970       O  0.65913697  0.99260767  0.65841960    -0.81400
O2971       O  0.56281171  0.89125030  0.68184570    -0.81340
O2972       O  0.64883593  0.92541238  0.58127008    -0.81320
O2973       O  0.64901635  0.93622678  0.63405782    -0.81370
O2974       O  0.52356567  0.85418064  0.65297561    -0.81340
O2975       O  0.59518810  0.86853810  0.58373270    -0.81300
O2976       O  0.62263834  0.94913116  0.68085835    -0.81370
Co2977     Co  0.55541699  0.88496863  0.62558990     1.51530
Co2978     Co  0.63050662  0.96202723  0.62632605     1.51690
Co2979     Co  0.57988917  0.93513704  0.66472514     1.51570
Co2980     Co  0.60521534  0.91102726  0.57046496     1.51470
O2981       O  0.59044193  0.92556809  0.61256358    -1.43260
C2982       C  0.59138693  0.85787269  0.61248116     1.08290
C2983       C  0.64537279  0.97733952  0.68440974     1.08380
C2984       C  0.53446854  0.86794283  0.68095857     1.08320
C2985       C  0.66080597  0.92951951  0.60932313     1.08290
O2986       O  0.68822467  0.65726135  0.84293158    -0.81330
O2987       O  0.63833586  0.52415517  0.87109937    -0.81350
O2988       O  0.67173216  0.56235450  0.80696119    -0.81360
O2989       O  0.62068702  0.58846483  0.91477694    -0.81300
O2990       O  0.68883538  0.54003353  0.83766531    -0.81420
O2991       O  0.63842628  0.61971606  0.87435109    -0.81340
O2992       O  0.62162478  0.53623317  0.91570392    -0.81330
O2993       O  0.67081427  0.61549916  0.81041462    -0.81360
C2994       C  0.67800371  0.64340169  0.81464298     1.08360
C2995       C  0.61733240  0.51648744  0.89271295     1.08250
C2996       C  0.67746316  0.54121486  0.81063954     1.08390
C2997       C  0.61643716  0.60299044  0.89334164     1.08260
O2998       O  0.68276673  0.66313621  0.91644233    -0.81330
O2999       O  0.72582775  0.58940841  0.88752107    -0.81400
O3000       O  0.73275542  0.64870032  0.83727746    -0.81340
O3001       O  0.68652079  0.56990775  0.93628559    -0.81320
O3002       O  0.68508550  0.53018510  0.90808655    -0.81370
O3003       O  0.72609856  0.64885918  0.89094188    -0.81340
O3004       O  0.68573881  0.62515537  0.93609380    -0.81300
O3005       O  0.73282989  0.59502722  0.83414476    -0.81370
Co3006     Co  0.68123154  0.63212636  0.88401246     1.51530
Co3007     Co  0.68143150  0.55817851  0.88085305     1.51690
Co3008     Co  0.69984894  0.60425091  0.82506448     1.51570
Co3009     Co  0.65550443  0.58100028  0.92051375     1.51470
O3010       O  0.67323466  0.59032360  0.86837383    -1.43260
C3011       C  0.68095311  0.64761576  0.94135582     1.08290
C3012       C  0.74302499  0.59473224  0.86209889     1.08380
C3013       C  0.74329253  0.66041617  0.86587125     1.08320
C3014       C  0.68435454  0.54324910  0.93595479     1.08290
O3015       O  0.53489610  0.61709156  0.65996816    -0.81330
O3016       O  0.62237516  0.67033260  0.57107266    -0.81350
O3017       O  0.53068252  0.67910312  0.59388909    -0.81360
O3018       O  0.60640692  0.63050294  0.61582469    -0.81300
O3019       O  0.56543969  0.67149241  0.56683840    -0.81420
O3020       O  0.58926239  0.61832149  0.66673640    -0.81340
O3021       O  0.66329528  0.67995334  0.59995781    -0.81330
O3022       O  0.53871513  0.63155734  0.60886412    -0.81360
C3023       C  0.52496621  0.61126283  0.63041707     1.08360
C3024       C  0.64980519  0.67456392  0.57216040     1.08250
C3025       C  0.54156157  0.67447142  0.56658191     1.08390
C3026       C  0.59732522  0.61142234  0.63882064     1.08260
O3027       O  0.61522045  0.67721168  0.70395064    -0.81330
O3028       O  0.59930494  0.73367927  0.59584412    -0.81400
O3029       O  0.52684013  0.66450600  0.66001822    -0.81340
O3030       O  0.65641498  0.71957382  0.64544012    -0.81320
O3031       O  0.65032360  0.73265087  0.59816925    -0.81370
O3032       O  0.56177673  0.67691419  0.69695529    -0.81340
O3033       O  0.64505517  0.66807007  0.67025973    -0.81300
O3034       O  0.57201092  0.71983538  0.64048636    -0.81370
Co3035     Co  0.57648977  0.64957688  0.67929817     1.51530
Co3036     Co  0.60731616  0.69880049  0.58932117     1.51690
Co3037     Co  0.55767805  0.67669233  0.62306922     1.51570
Co3038     Co  0.63034873  0.67622399  0.62856991     1.51470
O3039       O  0.59415629  0.67881522  0.63988166    -1.43260
C3040       C  0.63841345  0.67416675  0.69954643     1.08290
C3041       C  0.58732702  0.74059898  0.62019178     1.08380
C3042       C  0.53449700  0.66851578  0.69001660     1.08320
C3043       C  0.66494414  0.73994266  0.62467544     1.08290
O3044       O  0.91098655  0.93693470  0.66359733    -0.81330
O3045       O  0.85208386  0.95123508  0.56303336    -0.81350
O3046       O  0.82867374  0.85863679  0.59498205    -0.81360
O3047       O  0.88375247  0.99708217  0.63560913    -0.81300
O3048       O  0.84847180  0.89884131  0.56553674    -0.81420
O3049       O  0.90255004  0.96822335  0.61665018    -0.81340
O3050       O  0.83786789  0.98010570  0.59108743    -0.81330
O3051       O  0.88492416  0.90213081  0.62345992    -0.81360
C3052       C  0.90920674  0.91706939  0.64165835     1.08360
C3053       C  0.84998645  0.97477760  0.56522510     1.08250
C3054       C  0.83851874  0.87054367  0.56686990     1.08390
C3055       C  0.90622008  0.99492435  0.62272560     1.08260
O3056       O  0.88276420  0.96730643  0.68410164    -0.81330
O3057       O  0.78487069  0.87054567  0.59417360    -0.81400
O3058       O  0.84044646  0.85857578  0.66305004    -0.81340
O3059       O  0.79170157  0.94006018  0.63876226    -0.81320
O3060       O  0.78838319  0.92555055  0.58585076    -0.81370
O3061       O  0.85266308  0.90427118  0.68619755    -0.81340
O3062       O  0.83588475  0.95776954  0.68489797    -0.81300
O3063       O  0.79518130  0.87037855  0.64706431    -0.81370
Co3064     Co  0.87597390  0.93533226  0.64820846     1.51530
Co3065     Co  0.81975740  0.91229923  0.57915436     1.51690
Co3066     Co  0.83915034  0.88821718  0.63632795     1.51570
Co3067     Co  0.83711883  0.96593087  0.63736931     1.51470
O3068       O  0.83907792  0.92692592  0.62372063    -1.43260
C3069       C  0.86125029  0.96901398  0.69924415     1.08290
C3070       C  0.77647050  0.85956939  0.62315605     1.08380
C3071       C  0.84693649  0.87627703  0.68911437     1.08320
C3072       C  0.77685725  0.93136480  0.61198586     1.08290
C3073       C  0.99421415  0.55337877  0.62114392    -0.10340
C3074       C  0.99534188  0.58179273  0.62254552     0.05850
C3075       C  0.96734613  0.58126029  0.61983225    -0.04110
C3076       C  0.93897028  0.55281670  0.61813189    -0.08560
C3077       C  0.93742217  0.52409128  0.61845231     0.04970
C3078       C  0.96591605  0.52482179  0.61850054    -0.03590
Br3079     Br  0.96883227  0.48838410  0.61653295    -0.03280
H3080       H  0.51551869  0.55337932  0.62265692     0.08880
H3081       H  0.91782968  0.55327518  0.61752085     0.06900
Br3082     Br  0.96600625  0.61860536  0.62046398    -0.03710
C3083       C  0.74440595  0.80804418  0.64762218    -0.10340
C3084       C  0.74612807  0.83103133  0.62785752     0.05850
C3085       C  0.71991953  0.82448686  0.61013882    -0.04110
C3086       C  0.69317759  0.79521770  0.61149367    -0.08560
C3087       C  0.69203474  0.77157309  0.62942998     0.04970
C3088       C  0.71785976  0.77829894  0.64815612    -0.03590
Br3089     Br  0.72004810  0.74732403  0.67150050    -0.03280
H3090       H  0.76456663  0.81250741  0.66093102     0.08880
H3091       H  0.67347565  0.79052723  0.59717065     0.06900
Br3092     Br  0.71901092  0.85377264  0.58278052    -0.03710
C3093       C  0.67113526  0.65795757  0.72537115    -0.10340
C3094       C  0.65521202  0.67391026  0.72893887     0.05850
C3095       C  0.65246713  0.68531205  0.76127024    -0.04110
C3096       C  0.66219518  0.67735915  0.78927759    -0.08560
C3097       C  0.67500428  0.65845393  0.78563865     0.04970
C3098       C  0.68101723  0.65028766  0.75309566    -0.03590
Br3099     Br  0.70179740  0.62754601  0.74454685    -0.03280
H3100       H  0.67437811  0.64967472  0.70095582     0.08880
H3101       H  0.65813459  0.68449257  0.81396060     0.06900
Br3102     Br  0.63558168  0.71161553  0.76907801    -0.03710
C3103       C  0.65003503  0.63804570  0.52990471    -0.10340
C3104       C  0.66272236  0.66884210  0.54139189     0.05850
C3105       C  0.68221720  0.69312254  0.52032248    -0.04110
C3106       C  0.68784140  0.68610753  0.48747119    -0.08560
C3107       C  0.67491486  0.65501972  0.97581931     0.04970
C3108       C  0.65657655  0.63086001  0.99793121    -0.03590
Br3109     Br  0.63780507  0.58718825  0.98665706    -0.03280
H3110       H  0.63401740  0.61933753  0.54560171     0.08880
H3111       H  0.70241246  0.70487209  0.97115222     0.06900
Br3112     Br  0.70052072  0.73593043  0.53517925    -0.03710
C3113       C  0.68574341  0.51738250  0.52288706    -0.10340
C3114       C  0.65390635  0.99603588  0.52785052     0.05850
C3115       C  0.63320415  0.99170413  0.50243741    -0.04110
C3116       C  0.64454479  0.50587395  0.97238809    -0.08560
C3117       C  0.67600302  0.52645557  0.96701541     0.04970
C3118       C  0.69676443  0.53320414  0.49289003    -0.03590
Br3119     Br  0.73999328  0.56321804  0.48790182    -0.03280
H3120       H  0.70201826  0.52134564  0.54192277     0.08880
H3121       H  0.62823514  0.50139753  0.95328690     0.06900
Br3122     Br  0.58860850  0.96814315  0.50652114    -0.03710
C3123       C  0.63931242  0.50139138  0.77343407    -0.10340
C3124       C  0.67022974  0.51873615  0.78274584     0.05850
C3125       C  0.69336866  0.52089696  0.76031027    -0.04110
C3126       C  0.68531304  0.00738570  0.72798909    -0.08560
C3127       C  0.65418466  0.99069626  0.71847493     0.04970
C3128       C  0.63097681  0.48660776  0.74219883    -0.03590
Br3129     Br  0.58737705  0.46346394  0.73350732    -0.03280
H3130       H  0.62152571  0.50071708  0.79006054     0.08880
H3131       H  0.70324264  0.01004478  0.71033080     0.06900
Br3132     Br  0.73615847  0.54396626  0.77212075    -0.03710
C3133       C  0.62300239  0.55212276  0.62042049    -0.10340
C3134       C  0.59859433  0.52521675  0.63473000     0.05850
C3135       C  0.57326140  0.52693897  0.64865832    -0.04110
C3136       C  0.57294913  0.55469467  0.64847897    -0.08560
C3137       C  0.59750891  0.58167692  0.63469434     0.04970
C3138       C  0.62299769  0.58015983  0.62098488    -0.03590
Br3139     Br  0.66062245  0.61640733  0.60757644    -0.03280
H3140       H  0.64312573  0.55191270  0.61038325     0.08880
H3141       H  0.55347023  0.55533816  0.65987353     0.06900
Br3142     Br  0.53786390  0.99241901  0.66815072    -0.03710
C3143       C  0.61117770  0.79437949  0.60008011    -0.10340
C3144       C  0.59042008  0.77195122  0.62240973     0.05850
C3145       C  0.57202778  0.77960189  0.64364427    -0.04110
C3146       C  0.57396686  0.80836090  0.64117956    -0.08560
C3147       C  0.59355898  0.82990489  0.61749587     0.04970
C3148       C  0.61279513  0.82278890  0.59736515    -0.03590
Br3149     Br  0.64198168  0.85072783  0.56554989    -0.03280
H3150       H  0.62585361  0.78952552  0.58368587     0.08880
H3151       H  0.55888079  0.81322676  0.65687236     0.06900
Br3152     Br  0.54223144  0.75139859  0.67491612    -0.03710
C3153       C  0.70509459  0.92861347  0.58139385    -0.10340
C3154       C  0.68984075  0.92888430  0.61142805     0.05850
C3155       C  0.70352686  0.92976316  0.64165094    -0.04110
C3156       C  0.73143243  0.93004416  0.64108183    -0.08560
C3157       C  0.74665528  0.92984136  0.61094098     0.04970
C3158       C  0.73306361  0.92933306  0.58076902    -0.03590
Br3159     Br  0.75136346  0.93089479  0.53739642    -0.03280
H3160       H  0.69552888  0.92845987  0.55779618     0.08880
H3161       H  0.74136260  0.93057943  0.66457756     0.06900
Br3162     Br  0.68587697  0.93068526  0.68465058    -0.03710
C3163       C  0.97354885  0.90531649  0.60684641    -0.10340
C3164       C  0.98978960  0.91045554  0.63627229     0.05850
C3165       C  0.97743885  0.91482561  0.66700534    -0.04110
C3166       C  0.95027450  0.91500549  0.66748800    -0.08560
C3167       C  0.93500478  0.91176513  0.63816083     0.04970
C3168       C  0.94629775  0.90620498  0.60751916    -0.03590
Br3169     Br  0.92743220  0.90264291  0.56594306    -0.03280
H3170       H  0.98266021  0.90180706  0.58321145     0.08880
H3171       H  0.94134616  0.91856968  0.69126265     0.06900
Br3172     Br  0.49553747  0.92110019  0.71009866    -0.03710
C3173       C  0.52224815  0.66215871  0.97525307    -0.10340
C3174       C  0.99206380  0.65640783  0.97666804     0.05850
C3175       C  0.97923431  0.65957975  0.50709444    -0.04110
C3176       C  0.49596800  0.66618854  0.53620659    -0.08560
C3177       C  0.52548194  0.66963940  0.53520397     0.04970
C3178       C  0.53908423  0.66871365  0.50396964    -0.03590
Br3179     Br  0.58013281  0.67562685  0.49748322    -0.03280
H3180       H  0.53230074  0.65989328  0.95166819     0.08880
H3181       H  0.48558367  0.66807209  0.55966375     0.06900
Br3182     Br  0.93999795  0.65671963  0.50953869    -0.03710
C3183       C  0.48873769  0.62820570  0.76520495    -0.10340
C3184       C  0.96640510  0.63672560  0.76732007     0.05850
C3185       C  0.96517504  0.65445955  0.74236365    -0.04110
C3186       C  0.48737984  0.66449744  0.71656468    -0.08560
C3187       C  0.51093684  0.65756959  0.71619914     0.04970
C3188       C  0.51092062  0.63844470  0.74027151    -0.03590
Br3189     Br  0.53997369  0.62465842  0.74103055    -0.03280
H3190       H  0.48996518  0.61452428  0.78416907     0.08880
H3191       H  0.98699404  0.67864744  0.69757008     0.06900
Br3192     Br  0.93600178  0.66796560  0.74400003    -0.03710
C3193       C  0.88452962  0.00695132  0.98164907    -0.10340
C3194       C  0.88594143  0.53531703  0.98412021     0.05850
C3195       C  0.87392452  0.54338550  0.51243734    -0.04110
C3196       C  0.86223171  0.52344821  0.53896432    -0.08560
C3197       C  0.86134897  0.99503876  0.53679568     0.04970
C3198       C  0.87183087  0.98645142  0.00700491    -0.03590
Br3199     Br  0.86925844  0.94722640  0.99680579    -0.03280
H3200       H  0.89266587  0.00022766  0.95915465     0.08880
H3201       H  0.85385563  0.53016473  0.56119464     0.06900
Br3202     Br  0.87352815  0.58121856  0.51632765    -0.03710
C3203       C  0.89773983  0.00393503  0.74269413    -0.10340
C3204       C  0.86706012  0.98633315  0.73191011     0.05850
C3205       C  0.84378484  0.48769022  0.75154273    -0.04110
C3206       C  0.85171184  0.50608435  0.78118292    -0.08560
C3207       C  0.88262860  0.52440732  0.79127163     0.04970
C3208       C  0.90572170  0.52321684  0.77138573    -0.03590
Br3209     Br  0.94886924  0.54750171  0.78074893    -0.03280
H3210       H  0.91612014  0.00371210  0.72802918     0.08880
H3211       H  0.83365691  0.50704575  0.79572102     0.06900
Br3212     Br  0.80096677  0.46625679  0.73942366    -0.03710
C3213       C  0.53158661  0.57782850  0.90507562    -0.10340
C3214       C  0.53106944  0.60316864  0.89334795     0.05850
C3215       C  0.55876784  0.62837807  0.88090387    -0.04110
C3216       C  0.58615252  0.62757444  0.88021848    -0.08560
C3217       C  0.58653073  0.60190605  0.89184141     0.04970
C3218       C  0.55850028  0.57663635  0.90360470    -0.03590
Br3219     Br  0.55418396  0.53866432  0.91598732    -0.03280
H3220       H  0.51050698  0.55821176  0.91469085     0.08880
H3221       H  0.60741576  0.64754658  0.87152311     0.06900
Br3222     Br  0.56119742  0.66562562  0.86786446    -0.03710
C3223       C  0.82160112  0.60464961  0.84050416    -0.10340
C3224       C  0.82391410  0.58765480  0.86547236     0.05850
C3225       C  0.80040894  0.57519195  0.89046917    -0.04110
C3226       C  0.77537120  0.57944383  0.88962732    -0.08560
C3227       C  0.77253675  0.59555144  0.86418248     0.04970
C3228       C  0.79630247  0.60877146  0.83971012    -0.03590
Br3229     Br  0.79626166  0.63359068  0.80531632    -0.03280
H3230       H  0.83969645  0.61507089  0.82166762     0.08880
H3231       H  0.75722747  0.56878788  0.90837619     0.06900
Br3232     Br  0.79916369  0.55025913  0.92566932    -0.03710
C3233       C  0.97490143  0.83315743  0.49908455    -0.10340
C3234       C  0.99028519  0.84213729  0.96804884     0.05850
C3235       C  0.52224446  0.85396859  0.96599181    -0.04110
C3236       C  0.53851279  0.85902875  0.99512749    -0.08560
C3237       C  0.52352378  0.85278840  0.52659021     0.04970
C3238       C  0.99119206  0.83839202  0.52829683    -0.03590
Br3239     Br  0.96866557  0.82899372  0.56983861    -0.03280
H3240       H  0.95017143  0.82315305  0.50082631     0.08880
H3241       H  0.56348808  0.87022071  0.99345625     0.06900
Br3242     Br  0.54539340  0.86747748  0.92502322    -0.03710
C3243       C  0.52926441  0.86372642  0.74251854    -0.10340
C3244       C  0.51500458  0.85880879  0.71183151     0.05850
C3245       C  0.98317734  0.84901924  0.71188582    -0.04110
C3246       C  0.96786291  0.84869337  0.74199265    -0.08560
C3247       C  0.98281617  0.85555315  0.77247832     0.04970
C3248       C  0.51296345  0.86056311  0.77254025    -0.03590
Br3249     Br  0.53203378  0.86036162  0.81236466    -0.03280
H3250       H  0.55312622  0.86967210  0.74316164     0.08880
H3251       H  0.94424300  0.84325904  0.74150626     0.06900
Br3252     Br  0.95943894  0.83744737  0.67204489    -0.03710
C3253       C  0.94974167  0.97323827  0.85632220    -0.10340
C3254       C  0.92457292  0.94477927  0.86666571     0.05850
C3255       C  0.89783812  0.94415447  0.87946241    -0.04110
C3256       C  0.89705084  0.97157512  0.88213319    -0.08560
C3257       C  0.92240194  0.00034920  0.87228213     0.04970
C3258       C  0.94899368  0.00072369  0.85895270    -0.03590
Br3259     Br  0.98532546  0.53705029  0.84328491    -0.03280
H3260       H  0.97038855  0.97420770  0.84608185     0.08880
H3261       H  0.87619056  0.97017568  0.89226961     0.06900
Br3262     Br  0.86075911  0.90665376  0.89217975    -0.03710
C3263       C  0.93640900  0.73885412  0.91216124    -0.10460
C3264       C  0.91727307  0.74209220  0.89075551     0.05850
C3265       C  0.90105619  0.71902761  0.86581455    -0.04110
C3266       C  0.90490011  0.69358643  0.86199608    -0.08560
C3267       C  0.92566893  0.69128134  0.88191567     0.04970
C3268       C  0.94115451  0.71394948  0.90764096    -0.03590
Br3269     Br  0.96934059  0.71281159  0.93704305    -0.03280
H3270       H  0.94931470  0.75685291  0.93111092     0.08880
H3271       H  0.89264890  0.67626613  0.84225298     0.06900
Br3272     Br  0.87435106  0.72168812  0.83555752    -0.03710
C3273       C  0.55440737  0.93303082  0.86683337    -0.10340
C3274       C  0.52931639  0.92834063  0.88746223     0.05850
C3275       C  0.53481175  0.95120847  0.91275773    -0.04110
C3276       C  0.56403721  0.97870053  0.91512260    -0.08560
C3277       C  0.58809240  0.98495592  0.89187907     0.04970
C3278       C  0.58353889  0.96042111  0.86921273    -0.03590
Br3279     Br  0.61642839  0.96072096  0.84334873    -0.03280
H3280       H  0.55137489  0.91543736  0.84817045     0.08880
H3281       H  0.56788110  0.49533542  0.93541653     0.06900
Br3282     Br  0.00383416  0.94580772  0.94554758    -0.03710
C3283       C  0.77930231  0.71424419  0.84883922    -0.10340
C3284       C  0.77340594  0.69005700  0.86920579     0.05850
C3285       C  0.79524905  0.69565518  0.89334705    -0.04110
C3286       C  0.82217846  0.72522236  0.89697101    -0.08560
C3287       C  0.82790134  0.74974355  0.87691389     0.04970
C3288       C  0.80582123  0.74386257  0.85270257    -0.03590
Br3289     Br  0.80828079  0.77552114  0.82615069    -0.03280
H3290       H  0.76237995  0.71045688  0.83065766     0.08880
H3291       H  0.83882658  0.72899929  0.91547892     0.06900
Br3292     Br  0.79003378  0.66344500  0.92093522    -0.03710
C3293       C  0.83758723  0.85387164  0.97423557    -0.10340
C3294       C  0.85898878  0.84413354  0.97120204     0.05850
C3295       C  0.86635258  0.83489324  0.50040968    -0.04110
C3296       C  0.85641153  0.84005629  0.53197106    -0.08560
C3297       C  0.83832255  0.85359566  0.53521266     0.04970
C3298       C  0.82700565  0.85824980  0.00586539    -0.03590
Br3299     Br  0.79759716  0.87151868  0.00803070    -0.03280
H3300       H  0.83038455  0.85971721  0.95228100     0.08880
H3301       H  0.86467032  0.83551099  0.55404225     0.06900
Br3302     Br  0.88992584  0.81493238  0.49903509    -0.03710
C3303       C  0.85964304  0.84484730  0.72398872    -0.10340
C3304       C  0.84931629  0.86587439  0.72229899     0.05850
C3305       C  0.84486275  0.87904226  0.75251615    -0.04110
C3306       C  0.85296508  0.87310347  0.78288738    -0.08560
C3307       C  0.86546327  0.85400595  0.78422426     0.04970
C3308       C  0.86752457  0.83877128  0.75454856    -0.03590
Br3309     Br  0.87931229  0.80825949  0.75483983    -0.03280
H3310       H  0.86265649  0.83388192  0.70134198     0.08880
H3311       H  0.85046826  0.88441056  0.80555594     0.06900
Br3312     Br  0.82715983  0.90479223  0.75438897    -0.03710
loop_ 
_geom_bond_atom_site_label_1 
_geom_bond_atom_site_label_2 
_geom_bond_distance 
_geom_bond_site_symmetry_2 
_ccdc_geom_bond_type 
O1            C9   1.267       .  A
O1          Co21   1.893       .  S
O2           C10   1.256       .  A
O2          Co22   1.947       .  S
O3           C11   1.270       .  A
O3          Co23   2.058       .  S
O4           C12   1.280       .  A
O4          Co24   2.038       .  S
O5           C11   1.247       .  A
O5          Co22   1.950       .  S
O6           C12   1.269       .  A
O6          Co21   1.982       .  S
O7           C10   1.272       .  A
O7          Co24   2.031       .  S
O8            C9   1.298       .  A
O8          Co23   2.100       .  S
C9          C356   1.487       .  S
C10         C336   1.474       .  S
C11         C396   1.497       .  S
C12        C2032   1.497       .  S
O13          C26   1.267       .  A
O13         Co21   2.032       .  S
O14          C27   1.280       .  A
O14         Co22   2.037       .  S
O15          C28   1.269       .  A
O15         Co23   1.906       .  S
O16          C29   1.257       .  A
O16         Co24   1.953       .  S
O17          C29   1.269       .  A
O17         Co22   2.011       .  S
O18          C28   1.299       .  A
O18         Co21   2.110       .  S
O19          C26   1.252       .  A
O19         Co24   1.971       .  S
O20          C27   1.268       .  A
O20         Co23   1.972       .  S
Co21         O25   2.010       .  S
Co22         O25   2.028       .  S
Co23         O25   2.033       .  S
Co24         O25   2.037       .  S
C26         C349   1.483       .  S
C27         C389   1.492       .  S
C28         C409   1.489       .  S
C29         C366   1.458       .  S
O30          C38   1.269       .  A
O30         Co50   1.895       .  S
O31          C39   1.264       .  A
O31         Co51   2.000       .  S
O32          C40   1.303   1_655  A
O32       Co1708   2.089       .  S
O33          C41   1.268       .  A
O33         Co53   2.024       .  S
O34        C1696   1.269       .  A
O34         Co51   1.885       .  S
O35          C41   1.255       .  A
O35         Co50   1.973       .  S
O36          C39   1.269       .  A
O36         Co53   2.013       .  S
O37          C38   1.292       .  A
O37         Co52   2.037       .  S
C38         C286   1.459       .  S
C39        C1187   1.499       .  S
C40        O1690   1.269   1_455  A
C40         C316   1.480       .  S
C41         C309   1.484       .  S
O42          C55   1.274       .  A
O42         Co50   2.025       .  S
O43          C56   1.240       .  A
O43         Co51   1.971       .  S
O44          C57   1.253       .  A
O44         Co52   1.986       .  S
O45          C58   1.257       .  A
O45         Co53   1.970       .  S
O46          C58   1.265       .  A
O46         Co51   1.976       .  S
O47          C57   1.243       .  A
O47         Co50   1.942       .  S
O48          C55   1.256       .  A
O48         Co53   1.953       .  S
O49          C56   1.243       .  A
O49         Co52   1.970       .  S
Co50         O54   1.940       .  S
Co51         O54   1.905       .  S
Co52       O1688   2.089       .  S
Co52         O54   2.230       .  S
Co53         O54   2.073       .  S
C55         C326   1.482       .  S
C56         C276   1.455       .  S
C57         C369   1.468       .  S
C58         C296   1.447       .  S
O59          C67   1.250       .  A
O59         Co79   1.977       .  S
O60          C68   1.279       .  A
O60         Co80   2.044       .  S
O61          C69   1.255       .  A
O61         Co81   2.019       .  S
O62          C70   1.250       .  A
O62         Co82   1.939       .  S
O63          C69   1.250       .  A
O63         Co80   1.994       .  S
O64          C70   1.270       .  A
O64         Co79   2.029       .  S
O65          C68   1.254       .  A
O65         Co82   1.932       .  S
O66          C67   1.246       .  A
O66         Co81   1.952       .  S
C67        C1922   1.468   1_455  S
C68         C216   1.488       .  S
C69        C1064   1.507       .  S
C70         C339   1.473       .  S
O71          C84   1.258       .  A
O71         Co79   1.988       .  S
O72          C85   1.282       .  A
O72         Co80   1.936       .  S
O73          C86   1.297       .  A
O73         Co81   2.060       .  S
O74          C87   1.260       .  A
O74         Co82   1.993       .  S
O75          C87   1.256       .  A
O75         Co80   2.001       .  S
O76          C86   1.272       .  A
O76         Co79   1.913       .  S
O77          C84   1.269       .  A
O77         Co82   2.025       .  S
O78          C85   1.285       .  A
O78         Co81   2.021       .  S
Co79         O83   1.967       .  S
Co80         O83   1.973       .  S
Co81         O83   2.229       .  S
Co82         O83   2.067       .  S
C84         C249   1.494       .  S
C85         C229   1.471       .  S
C86         C346   1.487       .  S
C87         C256   1.492       .  S
O88          C96   1.278       .  A
O88        Co108   2.048       .  S
O89          C97   1.251       .  A
O89        Co109   1.988       .  S
O90          C98   1.258       .  A
O90        Co110   1.947       .  S
O91          C99   1.258       .  A
O91        Co111   2.009       .  S
O92          C98   1.272       .  A
O92        Co109   2.025       .  S
O93          C99   1.248       .  A
O93        Co108   1.968       .  S
O94          C97   1.255       .  A
O94        Co111   2.003       .  S
O95          C96   1.257       .  A
O95        Co110   1.952       .  S
C96         C199   1.484       .  S
C97        C1207   1.505   1_545  S
C98         C226   1.459       .  S
C99         C319   1.490       .  S
O100        C113   1.279       .  A
O100       Co108   1.946       .  S
O101        C114   1.259       .  A
O101       Co109   1.980       .  S
O102        C115   1.266       .  A
O102       Co110   2.022       .  S
O103        C116   1.288       .  A
O103       Co111   2.055       .  S
O104        C116   1.275       .  A
O104       Co109   1.923       .  S
O105        C115   1.256       .  A
O105       Co108   1.995       .  S
O106        C113   1.278       .  A
O106       Co111   2.014       .  S
O107        C114   1.263       .  A
O107       Co110   2.004       .  S
Co108       O112   1.992       .  S
Co109       O112   1.964       .  S
Co110       O112   2.072       .  S
Co111       O112   2.222       .  S
C113        C209   1.475       .  S
C114        C329   1.478       .  S
C115        C386   1.482       .  S
C116        C219   1.471       .  S
O117        C125   1.270       .  A
O117       Co137   2.031       .  S
O118        C126   1.293       .  A
O118       Co138   2.033       .  S
O119        C127   1.270       .  A
O119       Co139   1.896       .  S
O120        C128   1.265       .  A
O120       Co140   2.010       .  S
O121        C127   1.293       .  A
O121       Co138   2.048       .  S
O122        C128   1.268       .  A
O122       Co137   2.020       .  S
O123        C126   1.277       .  A
O123       Co140   1.915       .  S
O124        C125   1.262       .  A
O124       Co139   2.009       .  S
C125       C1832   1.490   1_455  S
C126        C206   1.457       .  S
C127        C279   1.472       .  S
C128        C239   1.502       .  S
O129        C142   1.264       .  A
O129       Co137   1.984       .  S
O130        C143   1.255       .  A
O130       Co138   1.998       .  S
O131        C144   1.257       .  A
O131       Co139   1.981       .  S
O132        C145   1.243       .  A
O132       Co140   1.968       .  S
O133        C145   1.250       .  A
O133       Co138   1.976       .  S
O134        C144   1.255       .  A
O134       Co137   1.963       .  S
O135        C142   1.275       .  A
O135       Co140   2.013       .  S
O136        C143   1.250       .  A
O136       Co139   1.990       .  S
Co137       O141   2.065       .  S
Co138       O141   2.241       .  S
Co139       O141   1.943       .  S
Co140       O141   1.935       .  S
C142        C196   1.492       .  S
C143        C246   1.500       .  S
C144        C289   1.452       .  S
C145        C189   1.472       .  S
O146        C154   1.263       .  A
O146       Co166   1.864       .  S
O147        C155   1.241       .  A
O147       Co167   1.913       .  S
O148        C156   1.268       .  A
O148       Co168   2.056       .  S
O149        C157   1.281       .  A
O149       Co169   2.045       .  S
O150        C156   1.243       .  A
O150       Co167   1.944       .  S
O151        C157   1.267       .  A
O151       Co166   1.986       .  S
O152        C155   1.269       .  A
O152       Co169   2.026       .  S
O153        C154   1.291       .  A
O153       Co168   2.090       .  S
C154        C269   1.462       .  S
C155        C299   1.466       .  S
C156        C399   1.488       .  S
C157       C1007   1.507       .  S
O158        C171   1.263       .  A
O158       Co166   1.997       .  S
O159        C172   1.279       .  A
O159       Co167   2.023       .  S
O160        C173   1.272       .  A
O160       Co168   1.921       .  S
O161        C174   1.262       .  A
O161       Co169   1.966       .  S
O162        C174   1.272       .  A
O162       Co167   2.020       .  S
O163        C173   1.295       .  A
O163       Co166   2.093       .  S
O164        C171   1.254       .  A
O164       Co169   1.972       .  S
O165        C172   1.266       .  A
O165       Co168   1.955       .  S
Co166       O170   1.983       .  S
Co167       O170   1.992       .  S
Co168       O170   2.045       .  S
Co169       O170   2.058       .  S
C171        C306   1.485       .  S
C172        C186   1.472       .  S
C173        C406   1.496       .  S
C174        C259   1.492       .  S
C175        C176   1.399       .  A
C175        C180   1.408       .  A
C175       H1838   1.083       .  S
C176       C1781   1.490       .  S
C176        C177   1.412       .  A
C177        C178   1.405       .  A
C177       Br184   1.915       .  S
C178        C179   1.408       .  A
C178        H183   1.083       .  S
C179        C985   1.507   1_545  S
C179        C180   1.423       .  A
C180       Br181   1.912   1_545  S
H182       C1831   1.083   1_455  S
C185        C186   1.407       .  A
C185        C190   1.398       .  A
C185        H192   1.084       .  S
C186        C187   1.407       .  A
C187        C188   1.390       .  A
C187       Br194   1.913       .  S
C188        C189   1.403       .  A
C188        H193   1.083       .  S
C189        C190   1.410       .  A
C190       Br191   1.921       .  S
C195        C196   1.401       .  A
C195        C200   1.396       .  A
C195        H202   1.083       .  S
C196        C197   1.421       .  A
C197        C198   1.408       .  A
C197       Br204   1.920       .  S
C198        C199   1.401       .  A
C198        H203   1.083       .  S
C199        C200   1.417       .  A
C200       Br201   1.925       .  S
C205        C206   1.391       .  A
C205        C624   1.388   1_554  A
C205        H212   1.083       .  S
C206        C207   1.407       .  A
C207        C208   1.403   1_554  A
C207       Br214   1.918       .  S
C208        C623   1.404       .  A
C208        H627   1.083       .  S
C209        C210   1.419       .  A
C209        C622   1.404       .  A
C210        C619   1.388       .  A
C210       Br211   1.920       .  S
H213        C622   1.083       .  S
C215        C220   1.413   1_554  A
C215       C1044   1.409   1_545  A
C215        H222   1.083       .  S
C216        C217   1.423       .  A
C216       C1043   1.409       .  A
C217       C1460   1.385   1_554  A
C217       Br224   1.931       .  S
C218        C219   1.391       .  A
C218       C1459   1.385   1_545  A
C218        H223   1.080       .  S
C219        C634   1.411       .  A
C220        C633   1.411       .  A
C220       Br221   1.915       .  S
C225        C226   1.394       .  A
C225        C230   1.386   1_545  A
C225        H232   1.084       .  S
C226        C227   1.408       .  A
C227       C1056   1.405       .  A
C227       Br234   1.917       .  S
C228        C229   1.405       .  A
C228       C1055   1.405       .  A
C228        H233   1.083       .  S
C229       C1058   1.415       .  A
C230       C1057   1.415       .  A
C230       Br231   1.922       .  S
C235        C236   1.407       .  A
C235        C240   1.410       .  A
C235        H242   1.083       .  S
C236        C897   1.507   1_545  S
C236        C237   1.418       .  A
C237        C238   1.406       .  A
C237      Br1072   1.908   1_545  S
C238        C239   1.403       .  A
C238        H243   1.083       .  S
C239        C240   1.417       .  A
C240       Br241   1.912       .  S
Br244      C1065   1.908       .  S
C245        C246   1.410       .  A
C245        C250   1.400       .  A
C245        H252   1.082       .  S
C246        C247   1.416       .  A
C247        C248   1.409       .  A
C247       Br254   1.920       .  S
C248        C249   1.410       .  A
C248        H253   1.083       .  S
C249        C250   1.410       .  A
C250       Br251   1.919       .  S
C255        C256   1.408       .  A
C255        C260   1.396       .  A
C255        H262   1.083       .  S
C256        C257   1.414       .  A
C257        C258   1.404       .  A
C257       Br264   1.920       .  S
C258        C259   1.410       .  A
C258        H263   1.083       .  S
C259        C260   1.415       .  A
C260       Br261   1.925       .  S
C265        C266   1.406       .  A
C265        C270   1.402       .  A
C265        H272   1.083       .  S
C266       C1723   1.468       .  S
C266        C267   1.417       .  A
C267        C268   1.379       .  A
C267      Br1930   1.930       .  S
C268        C269   1.395       .  A
C268        H273   1.085       .  S
C269        C270   1.410       .  A
C270       Br271   1.917       .  S
Br274      C1923   1.930       .  S
C275       C1932   1.398   1_455  A
C275        C694   1.386       .  A
C275        H282   1.085       .  S
C276       C1931   1.398       .  A
C276        C691   1.400       .  A
C277        C690   1.400   1_554  A
C277       C1934   1.397       .  A
C277       Br284   1.913       .  S
C278        C279   1.410   1_655  A
C278       C1933   1.397       .  A
C278        H283   1.083       .  S
C279        C280   1.416       .  A
C280        C689   1.386   1_554  A
C280       Br281   1.927   1_554  S
C285        C290   1.375   1_655  A
C285       C1942   1.400       .  A
C285        H292   1.083       .  S
C286        C287   1.408       .  A
C286       C1941   1.400       .  A
C287       C1944   1.401       .  A
C287       Br294   1.917       .  S
C288        C289   1.405   1_655  A
C288       C1943   1.401       .  A
C288       H1949   1.083       .  S
C289        C290   1.406       .  A
C290       Br291   1.927       .  S
H293       C1944   1.083       .  S
C295        C300   1.377       .  A
C295       C1124   1.390       .  A
C295        H302   1.085       .  S
C296       C1123   1.390       .  A
C296        C711   1.404       .  A
C297        C298   1.397       .  A
C297        C710   1.404   1_554  A
C297       Br304   1.912       .  S
C298       C1127   1.405   1_545  A
C298        H303   1.083       .  S
C299       C1126   1.405       .  A
C299        C714   1.423       .  A
C300        C713   1.423       .  A
C300       Br301   1.930       .  S
C305        C306   1.403       .  A
C305       C1138   1.392       .  A
C305        H312   1.083       .  S
C306       C1135   1.417       .  A
C307        C308   1.402   1_565  A
C307       C1134   1.417       .  A
C307       Br314   1.923       .  S
C308        C309   1.405       .  A
C308        H313   1.083       .  S
C309        C310   1.411       .  A
C310       C1133   1.392       .  A
C310       Br311   1.909       .  S
C315        C316   1.400       .  A
C315        C320   1.393       .  A
C315        H322   1.084       .  S
C316        C317   1.410       .  A
C317        C318   1.406       .  A
C317       Br324   1.918       .  S
C318        C319   1.410       .  A
C318        H323   1.083       .  S
C319        C320   1.410       .  A
C320       Br321   1.903       .  S
C325        C326   1.405       .  A
C325        C330   1.401       .  A
C325        H332   1.083       .  S
C326        C327   1.418       .  A
C327        C328   1.393       .  A
C327       Br334   1.926       .  S
C328        C329   1.400       .  A
C328        H333   1.083       .  S
C329        C330   1.413       .  A
C330       Br331   1.921       .  S
C335        C340   1.399   1_556  A
C335        C750   1.409       .  A
C335        H342   1.079   1_556  S
C336        C749   1.409       .  A
C336       C1993   1.403       .  A
C337        C338   1.397       .  A
C337       C1992   1.403   1_455  A
C337       Br344   1.919       .  S
C338        C753   1.411       .  A
C338        H343   1.084       .  S
C339        C752   1.411   1_554  A
C339       C1996   1.403   1_455  A
C340       C1995   1.403       .  A
C340       Br341   1.918       .  S
C345        C346   1.402       .  A
C345        C350   1.401       .  A
C345        H352   1.084       .  S
C346       C2003   1.418   1_455  A
C347        C348   1.405       .  A
C347       C2002   1.418       .  A
C347       Br354   1.921       .  S
C348        C349   1.400       .  A
C348        H353   1.079       .  S
C349       C2006   1.411       .  A
C350       C2005   1.411   1_455  A
C350       Br351   1.911       .  S
C355        C356   1.405       .  A
C355        C360   1.401       .  A
C355        H362   1.084       .  S
C356        C357   1.411       .  A
C357        C358   1.399       .  A
C357       Br364   1.921       .  S
C358        C359   1.411       .  A
C358        H363   1.083       .  S
C359        C867   1.499       .  S
C359        C360   1.417       .  A
C360      Br1189   1.912       .  S
Br361      C1188   1.912       .  S
C365        C366   1.401       .  A
C365        C370   1.395       .  A
C365        H372   1.084       .  S
C366        C367   1.405       .  A
C367        C368   1.391       .  A
C367       Br374   1.920       .  S
C368        C369   1.406       .  A
C368        H373   1.084       .  S
C369        C370   1.411       .  A
C370       Br371   1.920       .  S
C375        C376   1.405       .  A
C375        C380   1.402       .  A
C375        H382   1.078       .  S
C376       C1668   1.497   1_455  S
C376        C377   1.411       .  A
C377        C378   1.407       .  A
C377      Br2040   1.919       .  S
C378        C379   1.410       .  A
C378       H1211   1.081       .  S
C379        C925   1.505       .  S
C379        C380   1.414       .  A
C380       Br381   1.916       .  S
H383       C1206   1.081       .  S
Br384      C2033   1.919       .  S
C385        C386   1.401       .  A
C385        C390   1.399       .  A
C385        H392   1.084       .  S
C386        C387   1.409       .  A
C387        C388   1.405       .  A
C387       Br394   1.917       .  S
C388        C389   1.409       .  A
C388        H393   1.084       .  S
C389        C390   1.416       .  A
C390       Br391   1.919       .  S
C395        C396   1.400       .  A
C395        C400   1.408       .  A
C395        H402   1.083       .  S
C396        C811   1.422       .  A
C397        C398   1.405       .  A
C397        C810   1.422   1_554  A
C397       Br404   1.916   1_554  S
C398        C399   1.395       .  A
C398        H403   1.083       .  S
C399        C814   1.419       .  A
C400        C813   1.419       .  A
C400       Br401   1.919       .  S
C405        C406   1.409       .  A
C405        C410   1.408       .  A
C405        H412   1.083       .  S
C406        C407   1.415       .  A
C407        C408   1.403       .  A
C407       Br414   1.918       .  S
C408        C409   1.403       .  A
C408        H413   1.084       .  S
C409        C410   1.410       .  A
C410       Br411   1.916       .  S
O415        C423   1.267       .  A
O415       Co435   1.893       .  S
O416        C424   1.256       .  A
O416       Co436   1.947       .  S
O417        C425   1.270       .  A
O417       Co437   2.058       .  S
O418        C426   1.280       .  A
O418       Co438   2.038       .  S
O419        C425   1.247       .  A
O419       Co436   1.950       .  S
O420        C426   1.269       .  A
O420       Co435   1.982       .  S
O421        C424   1.272       .  A
O421       Co438   2.031       .  S
O422        C423   1.298       .  A
O422       Co437   2.100       .  S
C423        C770   1.487       .  S
C424        C750   1.474       .  S
C425        C810   1.497       .  S
C426       C2446   1.497       .  S
O427        C440   1.267       .  A
O427       Co435   2.032       .  S
O428        C441   1.280       .  A
O428       Co436   2.037       .  S
O429        C442   1.269       .  A
O429       Co437   1.906       .  S
O430        C443   1.257       .  A
O430       Co438   1.953       .  S
O431        C443   1.269       .  A
O431       Co436   2.011       .  S
O432        C442   1.299       .  A
O432       Co435   2.110       .  S
O433        C440   1.252       .  A
O433       Co438   1.971       .  S
O434        C441   1.268       .  A
O434       Co437   1.972       .  S
Co435       O439   2.010       .  S
Co436       O439   2.028       .  S
Co437       O439   2.033       .  S
Co438       O439   2.037       .  S
C440        C763   1.483       .  S
C441        C803   1.492       .  S
C442        C823   1.489       .  S
C443        C780   1.458       .  S
O444        C452   1.269       .  A
O444       Co464   1.895       .  S
O445        C453   1.264       .  A
O445       Co465   2.000       .  S
O446        C454   1.303   1_655  A
O446      Co2122   2.089       .  S
O447        C455   1.268       .  A
O447       Co467   2.024       .  S
O448       C2110   1.269       .  A
O448       Co465   1.885       .  S
O449        C455   1.255       .  A
O449       Co464   1.973       .  S
O450        C453   1.269       .  A
O450       Co467   2.013       .  S
O451        C452   1.292       .  A
O451       Co466   2.037       .  S
C452        C700   1.459       .  S
C453       C1601   1.499       .  S
C454       O2104   1.269   1_455  A
C454        C730   1.480       .  S
C455        C723   1.484       .  S
O456        C469   1.274       .  A
O456       Co464   2.025       .  S
O457        C470   1.240       .  A
O457       Co465   1.971       .  S
O458        C471   1.253       .  A
O458       Co466   1.986       .  S
O459        C472   1.257       .  A
O459       Co467   1.970       .  S
O460        C472   1.265       .  A
O460       Co465   1.976       .  S
O461        C471   1.243       .  A
O461       Co464   1.942       .  S
O462        C469   1.256       .  A
O462       Co467   1.953       .  S
O463        C470   1.243       .  A
O463       Co466   1.970       .  S
Co464       O468   1.940       .  S
Co465       O468   1.905       .  S
Co466      O2102   2.089       .  S
Co466       O468   2.230       .  S
Co467       O468   2.073       .  S
C469        C740   1.482       .  S
C470        C690   1.455       .  S
C471        C783   1.468       .  S
C472        C710   1.447       .  S
O473        C481   1.250       .  A
O473       Co493   1.977       .  S
O474        C482   1.279       .  A
O474       Co494   2.044       .  S
O475        C483   1.255       .  A
O475       Co495   2.019       .  S
O476        C484   1.250       .  A
O476       Co496   1.939       .  S
O477        C483   1.250       .  A
O477       Co494   1.994       .  S
O478        C484   1.270       .  A
O478       Co493   2.029       .  S
O479        C482   1.254       .  A
O479       Co496   1.932       .  S
O480        C481   1.246       .  A
O480       Co495   1.952       .  S
C481       C2336   1.468   1_455  S
C482        C630   1.488       .  S
C483       C1478   1.507       .  S
C484        C753   1.473       .  S
O485        C498   1.258       .  A
O485       Co493   1.988       .  S
O486        C499   1.282       .  A
O486       Co494   1.936       .  S
O487        C500   1.297       .  A
O487       Co495   2.060       .  S
O488        C501   1.260       .  A
O488       Co496   1.993       .  S
O489        C501   1.256       .  A
O489       Co494   2.001       .  S
O490        C500   1.272       .  A
O490       Co493   1.913       .  S
O491        C498   1.269       .  A
O491       Co496   2.025       .  S
O492        C499   1.285       .  A
O492       Co495   2.021       .  S
Co493       O497   1.967       .  S
Co494       O497   1.973       .  S
Co495       O497   2.229       .  S
Co496       O497   2.067       .  S
C498        C663   1.494       .  S
C499        C643   1.471       .  S
C500        C760   1.487       .  S
C501        C670   1.492       .  S
O502        C510   1.278       .  A
O502       Co522   2.048       .  S
O503        C511   1.251       .  A
O503       Co523   1.988       .  S
O504        C512   1.258       .  A
O504       Co524   1.947       .  S
O505        C513   1.258       .  A
O505       Co525   2.009       .  S
O506        C512   1.272       .  A
O506       Co523   2.025       .  S
O507        C513   1.248       .  A
O507       Co522   1.968       .  S
O508        C511   1.255       .  A
O508       Co525   2.003       .  S
O509        C510   1.257       .  A
O509       Co524   1.952       .  S
C510        C613   1.484       .  S
C511       C1621   1.505   1_545  S
C512        C640   1.459       .  S
C513        C733   1.490       .  S
O514        C527   1.279       .  A
O514       Co522   1.946       .  S
O515        C528   1.259       .  A
O515       Co523   1.980       .  S
O516        C529   1.266       .  A
O516       Co524   2.022       .  S
O517        C530   1.288       .  A
O517       Co525   2.055       .  S
O518        C530   1.275       .  A
O518       Co523   1.923       .  S
O519        C529   1.256       .  A
O519       Co522   1.995       .  S
O520        C527   1.278       .  A
O520       Co525   2.014       .  S
O521        C528   1.263       .  A
O521       Co524   2.004       .  S
Co522       O526   1.992       .  S
Co523       O526   1.964       .  S
Co524       O526   2.072       .  S
Co525       O526   2.222       .  S
C527        C623   1.475       .  S
C528        C743   1.478       .  S
C529        C800   1.482       .  S
C530        C633   1.471       .  S
O531        C539   1.270       .  A
O531       Co551   2.031       .  S
O532        C540   1.293       .  A
O532       Co552   2.033       .  S
O533        C541   1.270       .  A
O533       Co553   1.896       .  S
O534        C542   1.265       .  A
O534       Co554   2.010       .  S
O535        C541   1.293       .  A
O535       Co552   2.048       .  S
O536        C542   1.268       .  A
O536       Co551   2.020       .  S
O537        C540   1.277       .  A
O537       Co554   1.915       .  S
O538        C539   1.262       .  A
O538       Co553   2.009       .  S
C539       C2246   1.490   1_455  S
C540        C620   1.457       .  S
C541        C693   1.472       .  S
C542        C653   1.502       .  S
O543        C556   1.264       .  A
O543       Co551   1.984       .  S
O544        C557   1.255       .  A
O544       Co552   1.998       .  S
O545        C558   1.257       .  A
O545       Co553   1.981       .  S
O546        C559   1.243       .  A
O546       Co554   1.968       .  S
O547        C559   1.250       .  A
O547       Co552   1.976       .  S
O548        C558   1.255       .  A
O548       Co551   1.963       .  S
O549        C556   1.275       .  A
O549       Co554   2.013       .  S
O550        C557   1.250       .  A
O550       Co553   1.990       .  S
Co551       O555   2.065       .  S
Co552       O555   2.241       .  S
Co553       O555   1.943       .  S
Co554       O555   1.935       .  S
C556        C610   1.492       .  S
C557        C660   1.500       .  S
C558        C703   1.452       .  S
C559        C603   1.472       .  S
O560        C568   1.263       .  A
O560       Co580   1.864       .  S
O561        C569   1.241       .  A
O561       Co581   1.913       .  S
O562        C570   1.268       .  A
O562       Co582   2.056       .  S
O563        C571   1.281       .  A
O563       Co583   2.045       .  S
O564        C570   1.243       .  A
O564       Co581   1.944       .  S
O565        C571   1.267       .  A
O565       Co580   1.986       .  S
O566        C569   1.269       .  A
O566       Co583   2.026       .  S
O567        C568   1.291       .  A
O567       Co582   2.090       .  S
C568        C683   1.462       .  S
C569        C713   1.466       .  S
C570        C813   1.488       .  S
C571       C1421   1.507       .  S
O572        C585   1.263       .  A
O572       Co580   1.997       .  S
O573        C586   1.279       .  A
O573       Co581   2.023       .  S
O574        C587   1.272       .  A
O574       Co582   1.921       .  S
O575        C588   1.262       .  A
O575       Co583   1.966       .  S
O576        C588   1.272       .  A
O576       Co581   2.020       .  S
O577        C587   1.295       .  A
O577       Co580   2.093       .  S
O578        C585   1.254       .  A
O578       Co583   1.972       .  S
O579        C586   1.266       .  A
O579       Co582   1.955       .  S
Co580       O584   1.983       .  S
Co581       O584   1.992       .  S
Co582       O584   2.045       .  S
Co583       O584   2.058       .  S
C585        C720   1.485       .  S
C586        C600   1.472       .  S
C587        C820   1.496       .  S
C588        C673   1.492       .  S
C589        C590   1.399       .  A
C589        C594   1.408       .  A
C589       H2252   1.083       .  S
C590       C2195   1.490       .  S
C590        C591   1.412       .  A
C591        C592   1.405       .  A
C591       Br598   1.915       .  S
C592        C593   1.408       .  A
C592        H597   1.083       .  S
C593       C1399   1.507   1_545  S
C593        C594   1.423       .  A
C594       Br595   1.912   1_545  S
H596       C2245   1.083   1_455  S
C599        C600   1.407       .  A
C599        C604   1.398       .  A
C599        H606   1.084       .  S
C600        C601   1.407       .  A
C601        C602   1.390       .  A
C601       Br608   1.913       .  S
C602        C603   1.403       .  A
C602        H607   1.083       .  S
C603        C604   1.410       .  A
C604       Br605   1.921       .  S
C609        C610   1.401       .  A
C609        C614   1.396       .  A
C609        H616   1.083       .  S
C610        C611   1.421       .  A
C611        C612   1.408       .  A
C611       Br618   1.920       .  S
C612        C613   1.401       .  A
C612        H617   1.083       .  S
C613        C614   1.417       .  A
C614       Br615   1.925       .  S
C619        C620   1.391       .  A
C619        H626   1.083       .  S
C620        C621   1.407       .  A
C621        C622   1.403       .  A
C621       Br628   1.918       .  S
C623        C624   1.419       .  A
C624       Br625   1.920       .  S
C629       C1458   1.409   1_545  A
C629        C634   1.413       .  A
C629        H636   1.083       .  S
C630       C1457   1.409       .  A
C630        C631   1.423       .  A
C631       C1046   1.385       .  A
C631       Br638   1.931       .  S
C632       C1045   1.385   1_546  A
C632        C633   1.391       .  A
C632        H637   1.080       .  S
C634       Br635   1.915       .  S
C639        C640   1.394       .  A
C639        C644   1.386   1_545  A
C639        H646   1.084       .  S
C640        C641   1.408       .  A
C641       C1470   1.405       .  A
C641       Br648   1.917       .  S
C642       C1469   1.405       .  A
C642        C643   1.405       .  A
C642        H647   1.083       .  S
C643       C1472   1.415       .  A
C644       C1471   1.415       .  A
C644       Br645   1.922       .  S
C649        C650   1.407       .  A
C649        C654   1.410       .  A
C649        H656   1.083       .  S
C650       C1311   1.507   1_545  S
C650        C651   1.418       .  A
C651        C652   1.406       .  A
C651      Br1486   1.908   1_545  S
C652        C653   1.403       .  A
C652        H657   1.083       .  S
C653        C654   1.417       .  A
C654       Br655   1.912       .  S
Br658      C1479   1.908       .  S
C659        C660   1.410       .  A
C659        C664   1.400       .  A
C659        H666   1.082       .  S
C660        C661   1.416       .  A
C661        C662   1.409       .  A
C661       Br668   1.920       .  S
C662        C663   1.410       .  A
C662        H667   1.083       .  S
C663        C664   1.410       .  A
C664       Br665   1.919       .  S
C669        C670   1.408       .  A
C669        C674   1.396       .  A
C669        H676   1.083       .  S
C670        C671   1.414       .  A
C671        C672   1.404       .  A
C671       Br678   1.920       .  S
C672        C673   1.410       .  A
C672        H677   1.083       .  S
C673        C674   1.415       .  A
C674       Br675   1.925       .  S
C679        C680   1.406       .  A
C679        C684   1.402       .  A
C679        H686   1.083       .  S
C680       C2137   1.468       .  S
C680        C681   1.417       .  A
C681        C682   1.379       .  A
C681      Br2344   1.930       .  S
C682        C683   1.395       .  A
C682        H687   1.085       .  S
C683        C684   1.410       .  A
C684       Br685   1.917       .  S
Br688      C2337   1.930       .  S
C689       C2346   1.398   1_455  A
C689        H696   1.085       .  S
C690       C2345   1.398       .  A
C691       C2348   1.397       .  A
C691       Br698   1.913       .  S
C692       C2347   1.397       .  A
C692        C693   1.410   1_655  A
C692        H697   1.083       .  S
C693        C694   1.416       .  A
C694       Br695   1.927       .  S
C699       C2356   1.400       .  A
C699        C704   1.375   1_655  A
C699        H706   1.083       .  S
C700       C2355   1.400       .  A
C700        C701   1.408       .  A
C701       C2358   1.401       .  A
C701       Br708   1.917       .  S
C702       C2357   1.401       .  A
C702        C703   1.405   1_655  A
C702       H2363   1.083       .  S
C703        C704   1.406       .  A
C704       Br705   1.927       .  S
H707       C2358   1.083       .  S
C709       C1538   1.390       .  A
C709        C714   1.377   1_556  A
C709        H716   1.085       .  S
C710       C1537   1.390       .  A
C711        C712   1.397       .  A
C711       Br718   1.912       .  S
C712       C1541   1.405   1_545  A
C712        H717   1.083       .  S
C713       C1540   1.405       .  A
C714       Br715   1.930   1_554  S
C719        C720   1.403       .  A
C719       C1552   1.392       .  A
C719        H726   1.083       .  S
C720       C1549   1.417       .  A
C721       C1548   1.417       .  A
C721        C722   1.402   1_565  A
C721       Br728   1.923       .  S
C722        C723   1.405       .  A
C722        H727   1.083       .  S
C723        C724   1.411       .  A
C724       C1547   1.392       .  A
C724       Br725   1.909       .  S
C729        C730   1.400       .  A
C729        C734   1.393       .  A
C729        H736   1.084       .  S
C730        C731   1.410       .  A
C731        C732   1.406       .  A
C731       Br738   1.918       .  S
C732        C733   1.410       .  A
C732        H737   1.083       .  S
C733        C734   1.410       .  A
C734       Br735   1.903       .  S
C739        C740   1.405       .  A
C739        C744   1.401       .  A
C739        H746   1.083       .  S
C740        C741   1.418       .  A
C741        C742   1.393       .  A
C741       Br748   1.926       .  S
C742        C743   1.400       .  A
C742        H747   1.083       .  S
C743        C744   1.413       .  A
C744       Br745   1.921       .  S
C749        C754   1.399       .  A
C749        H756   1.079       .  S
C750       C2407   1.403       .  A
C751       C2406   1.403   1_455  A
C751        C752   1.397       .  A
C751       Br758   1.919       .  S
C752        H757   1.084       .  S
C753       C2410   1.403   1_455  A
C754       C2409   1.403       .  A
C754       Br755   1.918       .  S
C759        C760   1.402       .  A
C759        C764   1.401       .  A
C759        H766   1.084       .  S
C760       C2417   1.418   1_455  A
C761       C2416   1.418       .  A
C761        C762   1.405       .  A
C761       Br768   1.921       .  S
C762        C763   1.400       .  A
C762        H767   1.079       .  S
C763       C2420   1.411       .  A
C764       C2419   1.411   1_455  A
C764       Br765   1.911       .  S
C769        C770   1.405       .  A
C769        C774   1.401       .  A
C769        H776   1.084       .  S
C770        C771   1.411       .  A
C771        C772   1.399       .  A
C771       Br778   1.921       .  S
C772        C773   1.411       .  A
C772        H777   1.083       .  S
C773       C1281   1.499       .  S
C773        C774   1.417       .  A
C774      Br1603   1.912       .  S
Br775      C1602   1.912       .  S
C779        C780   1.401       .  A
C779        C784   1.395       .  A
C779        H786   1.084       .  S
C780        C781   1.405       .  A
C781        C782   1.391       .  A
C781       Br788   1.920       .  S
C782        C783   1.406       .  A
C782        H787   1.084       .  S
C783        C784   1.411       .  A
C784       Br785   1.920       .  S
C789        C790   1.405       .  A
C789        C794   1.402       .  A
C789        H796   1.078       .  S
C790       C2082   1.497   1_455  S
C790        C791   1.411       .  A
C791        C792   1.407       .  A
C791      Br2454   1.919       .  S
C792        C793   1.410       .  A
C792       H1625   1.081       .  S
C793       C1339   1.505       .  S
C793        C794   1.414       .  A
C794       Br795   1.916       .  S
H797       C1620   1.081       .  S
Br798      C2447   1.919       .  S
C799        C800   1.401       .  A
C799        C804   1.399       .  A
C799        H806   1.084       .  S
C800        C801   1.409       .  A
C801        C802   1.405       .  A
C801       Br808   1.917       .  S
C802        C803   1.409       .  A
C802        H807   1.084       .  S
C803        C804   1.416       .  A
C804       Br805   1.919       .  S
C809        C810   1.400       .  A
C809        C814   1.408   1_556  A
C809        H816   1.083       .  S
C811        C812   1.405       .  A
C811       Br818   1.916       .  S
C812        C813   1.395       .  A
C812        H817   1.083       .  S
C814       Br815   1.919       .  S
C819        C820   1.409       .  A
C819        C824   1.408       .  A
C819        H826   1.083       .  S
C820        C821   1.415       .  A
C821        C822   1.403       .  A
C821       Br828   1.918       .  S
C822        C823   1.403       .  A
C822        H827   1.084       .  S
C823        C824   1.410       .  A
C824       Br825   1.916       .  S
O829        C837   1.267       .  A
O829       Co849   1.893       .  S
O830        C838   1.256       .  A
O830       Co850   1.947       .  S
O831        C839   1.270       .  A
O831       Co851   2.058       .  S
O832        C840   1.280       .  A
O832       Co852   2.038       .  S
O833        C839   1.247       .  A
O833       Co850   1.950       .  S
O834        C840   1.269       .  A
O834       Co849   1.982       .  S
O835        C838   1.272       .  A
O835       Co852   2.031       .  S
O836        C837   1.298       .  A
O836       Co851   2.100       .  S
C837       C1184   1.487       .  S
C838       C1164   1.474       .  S
C839       C1224   1.497       .  S
C840       C2860   1.497       .  S
O841        C854   1.267       .  A
O841       Co849   2.032       .  S
O842        C855   1.280       .  A
O842       Co850   2.037       .  S
O843        C856   1.269       .  A
O843       Co851   1.906       .  S
O844        C857   1.257       .  A
O844       Co852   1.953       .  S
O845        C857   1.269       .  A
O845       Co850   2.011       .  S
O846        C856   1.299       .  A
O846       Co849   2.110       .  S
O847        C854   1.252       .  A
O847       Co852   1.971       .  S
O848        C855   1.268       .  A
O848       Co851   1.972       .  S
Co849       O853   2.010       .  S
Co850       O853   2.028       .  S
Co851       O853   2.033       .  S
Co852       O853   2.037       .  S
C854       C1177   1.483       .  S
C855       C1217   1.492       .  S
C856       C1237   1.489       .  S
C857       C1194   1.458       .  S
O858        C866   1.269       .  A
O858       Co878   1.895       .  S
O859        C867   1.264       .  A
O859       Co879   2.000       .  S
O860        C868   1.303   1_655  A
O860      Co2536   2.089       .  S
O861        C869   1.268       .  A
O861       Co881   2.024       .  S
O862       C2524   1.269       .  A
O862       Co879   1.885       .  S
O863        C869   1.255       .  A
O863       Co878   1.973       .  S
O864        C867   1.269       .  A
O864       Co881   2.013       .  S
O865        C866   1.292       .  A
O865       Co880   2.037       .  S
C866       C1114   1.459       .  S
C868       O2518   1.269   1_455  A
C868       C1144   1.480       .  S
C869       C1137   1.484       .  S
O870        C883   1.274       .  A
O870       Co878   2.025       .  S
O871        C884   1.240       .  A
O871       Co879   1.971       .  S
O872        C885   1.253       .  A
O872       Co880   1.986       .  S
O873        C886   1.257       .  A
O873       Co881   1.970       .  S
O874        C886   1.265       .  A
O874       Co879   1.976       .  S
O875        C885   1.243       .  A
O875       Co878   1.942       .  S
O876        C883   1.256       .  A
O876       Co881   1.953       .  S
O877        C884   1.243       .  A
O877       Co880   1.970       .  S
Co878       O882   1.940       .  S
Co879       O882   1.905       .  S
Co880      O2516   2.089       .  S
Co880       O882   2.230       .  S
Co881       O882   2.073       .  S
C883       C1154   1.482       .  S
C884       C1104   1.455       .  S
C885       C1197   1.468       .  S
C886       C1124   1.447       .  S
O887        C895   1.250       .  A
O887       Co907   1.977       .  S
O888        C896   1.279       .  A
O888       Co908   2.044       .  S
O889        C897   1.255       .  A
O889       Co909   2.019       .  S
O890        C898   1.250       .  A
O890       Co910   1.939       .  S
O891        C897   1.250       .  A
O891       Co908   1.994       .  S
O892        C898   1.270       .  A
O892       Co907   2.029       .  S
O893        C896   1.254       .  A
O893       Co910   1.931       .  S
O894        C895   1.246       .  A
O894       Co909   1.952       .  S
C895       C2750   1.468   1_455  S
C896       C1044   1.488       .  S
C898       C1167   1.473       .  S
O899        C912   1.258       .  A
O899       Co907   1.988       .  S
O900        C913   1.282       .  A
O900       Co908   1.936       .  S
O901        C914   1.298       .  A
O901       Co909   2.060       .  S
O902        C915   1.260       .  A
O902       Co910   1.993       .  S
O903        C915   1.256       .  A
O903       Co908   2.001       .  S
O904        C914   1.272       .  A
O904       Co907   1.913       .  S
O905        C912   1.269       .  A
O905       Co910   2.025       .  S
O906        C913   1.285       .  A
O906       Co909   2.021       .  S
Co907       O911   1.967       .  S
Co908       O911   1.973       .  S
Co909       O911   2.229       .  S
Co910       O911   2.067       .  S
C912       C1077   1.494       .  S
C913       C1057   1.471       .  S
C914       C1174   1.487       .  S
C915       C1084   1.492       .  S
O916        C924   1.278       .  A
O916       Co936   2.048       .  S
O917        C925   1.251       .  A
O917       Co937   1.988       .  S
O918        C926   1.258       .  A
O918       Co938   1.947       .  S
O919        C927   1.258       .  A
O919       Co939   2.009       .  S
O920        C926   1.272       .  A
O920       Co937   2.025       .  S
O921        C927   1.248       .  A
O921       Co936   1.968       .  S
O922        C925   1.255       .  A
O922       Co939   2.003       .  S
O923        C924   1.257       .  A
O923       Co938   1.952       .  S
C924       C1027   1.484       .  S
C926       C1054   1.459       .  S
C927       C1147   1.490       .  S
O928        C941   1.279       .  A
O928       Co936   1.946       .  S
O929        C942   1.259       .  A
O929       Co937   1.980       .  S
O930        C943   1.266       .  A
O930       Co938   2.022       .  S
O931        C944   1.288       .  A
O931       Co939   2.055       .  S
O932        C944   1.275       .  A
O932       Co937   1.923       .  S
O933        C943   1.256       .  A
O933       Co936   1.995       .  S
O934        C941   1.278       .  A
O934       Co939   2.014       .  S
O935        C942   1.263       .  A
O935       Co938   2.004       .  S
Co936       O940   1.992       .  S
Co937       O940   1.964       .  S
Co938       O940   2.072       .  S
Co939       O940   2.222       .  S
C941       C1037   1.475       .  S
C942       C1157   1.478       .  S
C943       C1214   1.482       .  S
C944       C1047   1.471       .  S
O945        C953   1.270       .  A
O945       Co965   2.031       .  S
O946        C954   1.293       .  A
O946       Co966   2.033       .  S
O947        C955   1.270       .  A
O947       Co967   1.896       .  S
O948        C956   1.265       .  A
O948       Co968   2.010       .  S
O949        C955   1.293       .  A
O949       Co966   2.048       .  S
O950        C956   1.268       .  A
O950       Co965   2.020       .  S
O951        C954   1.277       .  A
O951       Co968   1.915       .  S
O952        C953   1.262       .  A
O952       Co967   2.009       .  S
C953       C2660   1.490   1_455  S
C954       C1034   1.457       .  S
C955       C1107   1.472       .  S
C956       C1067   1.502       .  S
O957        C970   1.264       .  A
O957       Co965   1.984       .  S
O958        C971   1.255       .  A
O958       Co966   1.998       .  S
O959        C972   1.257       .  A
O959       Co967   1.981       .  S
O960        C973   1.243       .  A
O960       Co968   1.968       .  S
O961        C973   1.250       .  A
O961       Co966   1.976       .  S
O962        C972   1.255       .  A
O962       Co965   1.963       .  S
O963        C970   1.275       .  A
O963       Co968   2.013       .  S
O964        C971   1.250       .  A
O964       Co967   1.990       .  S
Co965       O969   2.065       .  S
Co966       O969   2.241       .  S
Co967       O969   1.943       .  S
Co968       O969   1.935       .  S
C970       C1024   1.492       .  S
C971       C1074   1.500       .  S
C972       C1117   1.452       .  S
C973       C1017   1.472       .  S
O974        C982   1.263       .  A
O974       Co994   1.864       .  S
O975        C983   1.241       .  A
O975       Co995   1.913       .  S
O976        C984   1.268       .  A
O976       Co996   2.056       .  S
O977        C985   1.281       .  A
O977       Co997   2.045       .  S
O978        C984   1.243       .  A
O978       Co995   1.944       .  S
O979        C985   1.267       .  A
O979       Co994   1.986       .  S
O980        C983   1.269       .  A
O980       Co997   2.026       .  S
O981        C982   1.291       .  A
O981       Co996   2.091       .  S
C982       C1097   1.462       .  S
C983       C1127   1.466       .  S
C984       C1227   1.488       .  S
O986        C999   1.263       .  A
O986       Co994   1.997       .  S
O987       C1000   1.279       .  A
O987       Co995   2.024       .  S
O988       C1001   1.272       .  A
O988       Co996   1.921       .  S
O989       C1002   1.262       .  A
O989       Co997   1.966       .  S
O990       C1002   1.272       .  A
O990       Co995   2.020       .  S
O991       C1001   1.295       .  A
O991       Co994   2.093       .  S
O992        C999   1.254       .  A
O992       Co997   1.972       .  S
O993       C1000   1.266       .  A
O993       Co996   1.955       .  S
Co994       O998   1.983       .  S
Co995       O998   1.992       .  S
Co996       O998   2.045       .  S
Co997       O998   2.058       .  S
C999       C1134   1.485       .  S
C1000      C1014   1.472       .  S
C1001      C1234   1.496       .  S
C1002      C1087   1.492       .  S
C1003      C1004   1.399       .  A
C1003      C1008   1.408       .  A
C1003      H2666   1.083       .  S
C1004      C2609   1.490       .  S
C1004      C1005   1.412       .  A
C1005      C1006   1.405       .  A
C1005     Br1012   1.915       .  S
C1006      C1007   1.408       .  A
C1006      H1011   1.083       .  S
C1007      C1008   1.423       .  A
C1008     Br1009   1.912       .  S
H1010      C2659   1.083   1_455  S
C1013      C1014   1.407       .  A
C1013      C1018   1.398       .  A
C1013      H1020   1.084       .  S
C1014      C1015   1.407       .  A
C1015      C1016   1.390       .  A
C1015     Br1022   1.913       .  S
C1016      C1017   1.403       .  A
C1016      H1021   1.083       .  S
C1017      C1018   1.410       .  A
C1018     Br1019   1.921       .  S
C1023      C1024   1.401       .  A
C1023      C1028   1.396       .  A
C1023      H1030   1.083       .  S
C1024      C1025   1.421       .  A
C1025      C1026   1.408       .  A
C1025     Br1032   1.920       .  S
C1026      C1027   1.401       .  A
C1026      H1031   1.083       .  S
C1027      C1028   1.417       .  A
C1028     Br1029   1.925       .  S
C1033      C1034   1.391       .  A
C1033      C1452   1.388   1_554  A
C1033      H1040   1.083       .  S
C1034      C1035   1.407       .  A
C1035      C1036   1.403   1_554  A
C1035     Br1042   1.918       .  S
C1036      C1451   1.404       .  A
C1036      H1455   1.083       .  S
C1037      C1450   1.404       .  A
C1037      C1038   1.419       .  A
C1038      C1447   1.388       .  A
C1038     Br1039   1.920       .  S
H1041      C1450   1.083       .  S
C1043      C1048   1.413   1_554  A
C1043      H1050   1.083       .  S
C1044      C1045   1.423       .  A
C1045     Br1052   1.932       .  S
C1046      C1047   1.391       .  A
C1046      H1051   1.080       .  S
C1047      C1462   1.411       .  A
C1048      C1461   1.411       .  A
C1048     Br1049   1.915       .  S
C1053      C1054   1.394       .  A
C1053      C1058   1.386       .  A
C1053      H1060   1.084       .  S
C1054      C1055   1.408       .  A
C1055     Br1062   1.917       .  S
C1056      C1057   1.405   1_545  A
C1056      H1061   1.083       .  S
C1058     Br1059   1.922       .  S
C1063      C1064   1.407       .  A
C1063      C1068   1.410       .  A
C1063      H1070   1.083       .  S
C1064      C1065   1.418       .  A
C1065      C1066   1.406       .  A
C1066      C1067   1.403       .  A
C1066      H1071   1.083       .  S
C1067      C1068   1.417       .  A
C1068     Br1069   1.912       .  S
C1073      C1074   1.410       .  A
C1073      C1078   1.400       .  A
C1073      H1080   1.082       .  S
C1074      C1075   1.416       .  A
C1075      C1076   1.409       .  A
C1075     Br1082   1.920       .  S
C1076      C1077   1.410       .  A
C1076      H1081   1.083       .  S
C1077      C1078   1.410       .  A
C1078     Br1079   1.919       .  S
C1083      C1084   1.408       .  A
C1083      C1088   1.396       .  A
C1083      H1090   1.083       .  S
C1084      C1085   1.414       .  A
C1085      C1086   1.404       .  A
C1085     Br1092   1.920       .  S
C1086      C1087   1.410       .  A
C1086      H1091   1.083       .  S
C1087      C1088   1.415       .  A
C1088     Br1089   1.925       .  S
C1093      C1094   1.406       .  A
C1093      C1098   1.402       .  A
C1093      H1100   1.083       .  S
C1094      C2551   1.468       .  S
C1094      C1095   1.417       .  A
C1095      C1096   1.379       .  A
C1095     Br2758   1.930       .  S
C1096      C1097   1.395       .  A
C1096      H1101   1.085       .  S
C1097      C1098   1.410       .  A
C1098     Br1099   1.917       .  S
Br1102     C2751   1.930       .  S
C1103      C2760   1.398   1_455  A
C1103      C1522   1.386       .  A
C1103      H1110   1.085       .  S
C1104      C2759   1.398       .  A
C1104      C1519   1.400       .  A
C1105      C1518   1.400   1_554  A
C1105      C2762   1.397       .  A
C1105     Br1112   1.913       .  S
C1106      C2761   1.397       .  A
C1106      C1107   1.410   1_655  A
C1106      H1111   1.083       .  S
C1107      C1108   1.416       .  A
C1108      C1517   1.386   1_554  A
C1108     Br1109   1.927   1_554  S
C1113      C2770   1.400       .  A
C1113      C1118   1.375   1_655  A
C1113      H1120   1.083       .  S
C1114      C2769   1.400       .  A
C1114      C1115   1.408       .  A
C1115      C2772   1.401       .  A
C1115     Br1122   1.917       .  S
C1116      C2771   1.401       .  A
C1116      C1117   1.405   1_655  A
C1116      H2777   1.083       .  S
C1117      C1118   1.406       .  A
C1118     Br1119   1.927       .  S
H1121      C2772   1.083       .  S
C1123      C1128   1.377   1_545  A
C1123      H1130   1.085       .  S
C1124      C1539   1.404       .  A
C1125      C1538   1.404   1_554  A
C1125      C1126   1.397       .  A
C1125     Br1132   1.912       .  S
C1126      H1131   1.083       .  S
C1127      C1542   1.423       .  A
C1128      C1541   1.423       .  A
C1128     Br1129   1.930       .  S
C1133      C1134   1.403   1_545  A
C1133      H1140   1.083       .  S
C1135      C1136   1.402       .  A
C1135     Br1142   1.923       .  S
C1136      C1137   1.405       .  A
C1136      H1141   1.083       .  S
C1137      C1138   1.411       .  A
C1138     Br1139   1.909       .  S
C1143      C1144   1.400       .  A
C1143      C1148   1.393       .  A
C1143      H1150   1.084       .  S
C1144      C1145   1.410       .  A
C1145      C1146   1.406       .  A
C1145     Br1152   1.918       .  S
C1146      C1147   1.410       .  A
C1146      H1151   1.083       .  S
C1147      C1148   1.410       .  A
C1148     Br1149   1.903       .  S
C1153      C1154   1.405       .  A
C1153      C1158   1.401       .  A
C1153      H1160   1.083       .  S
C1154      C1155   1.418       .  A
C1155      C1156   1.393       .  A
C1155     Br1162   1.926       .  S
C1156      C1157   1.400       .  A
C1156      H1161   1.083       .  S
C1157      C1158   1.413       .  A
C1158     Br1159   1.921       .  S
C1163      C1578   1.409       .  A
C1163      C1168   1.399   1_556  A
C1163      H1170   1.079   1_556  S
C1164      C1577   1.409       .  A
C1164      C2821   1.403       .  A
C1165      C2820   1.403   1_455  A
C1165      C1166   1.397       .  A
C1165     Br1172   1.919       .  S
C1166      C1581   1.411       .  A
C1166      H1171   1.084       .  S
C1167      C1580   1.411   1_554  A
C1167      C2824   1.403   1_455  A
C1168      C2823   1.403       .  A
C1168     Br1169   1.918       .  S
C1173      C1174   1.402       .  A
C1173      C1178   1.401       .  A
C1173      H1180   1.084       .  S
C1174      C2831   1.418   1_455  A
C1175      C2830   1.418       .  A
C1175      C1176   1.405       .  A
C1175     Br1182   1.921       .  S
C1176      C1177   1.400       .  A
C1176      H1181   1.079       .  S
C1177      C2834   1.411       .  A
C1178      C2833   1.411   1_455  A
C1178     Br1179   1.911       .  S
C1183      C1184   1.405       .  A
C1183      C1188   1.401   1_565  A
C1183      H1190   1.084       .  S
C1184      C1185   1.411       .  A
C1185      C1186   1.399       .  A
C1185     Br1192   1.921       .  S
C1186      C1187   1.411   1_565  A
C1186      H1191   1.083       .  S
C1187      C1188   1.417       .  A
C1193      C1194   1.401       .  A
C1193      C1198   1.395       .  A
C1193      H1200   1.084       .  S
C1194      C1195   1.405       .  A
C1195      C1196   1.391       .  A
C1195     Br1202   1.920       .  S
C1196      C1197   1.406       .  A
C1196      H1201   1.084       .  S
C1197      C1198   1.411       .  A
C1198     Br1199   1.920       .  S
C1203      C1204   1.405       .  A
C1203      C1208   1.402       .  A
C1203      H1210   1.078       .  S
C1204      C2496   1.497   1_455  S
C1204      C1205   1.411       .  A
C1205      C1206   1.407       .  A
C1205     Br2868   1.920       .  S
C1206      C1207   1.410       .  A
C1207      C1208   1.414       .  A
C1208     Br1209   1.916       .  S
Br1212     C2861   1.920       .  S
C1213      C1214   1.401       .  A
C1213      C1218   1.399       .  A
C1213      H1220   1.084       .  S
C1214      C1215   1.409       .  A
C1215      C1216   1.405       .  A
C1215     Br1222   1.917       .  S
C1216      C1217   1.409       .  A
C1216      H1221   1.084       .  S
C1217      C1218   1.416       .  A
C1218     Br1219   1.919       .  S
C1223      C1224   1.400       .  A
C1223      C1228   1.408       .  A
C1223      H1230   1.083       .  S
C1224      C1639   1.422       .  A
C1225      C1638   1.422   1_554  A
C1225      C1226   1.405       .  A
C1225     Br1232   1.916   1_554  S
C1226      C1227   1.395       .  A
C1226      H1231   1.083       .  S
C1227      C1642   1.419       .  A
C1228      C1641   1.419       .  A
C1228     Br1229   1.919       .  S
C1233      C1234   1.409       .  A
C1233      C1238   1.408       .  A
C1233      H1240   1.083       .  S
C1234      C1235   1.415       .  A
C1235      C1236   1.403       .  A
C1235     Br1242   1.918       .  S
C1236      C1237   1.403       .  A
C1236      H1241   1.084       .  S
C1237      C1238   1.410       .  A
C1238     Br1239   1.916       .  S
O1243      C1251   1.267       .  A
O1243     Co1263   1.893       .  S
O1244      C1252   1.256       .  A
O1244     Co1264   1.947       .  S
O1245      C1253   1.270       .  A
O1245     Co1265   2.058       .  S
O1246      C1254   1.280       .  A
O1246     Co1266   2.038       .  S
O1247      C1253   1.247       .  A
O1247     Co1264   1.950       .  S
O1248      C1254   1.269       .  A
O1248     Co1263   1.982       .  S
O1249      C1252   1.272       .  A
O1249     Co1266   2.031       .  S
O1250      C1251   1.298       .  A
O1250     Co1265   2.100       .  S
C1251      C1598   1.487       .  S
C1252      C1578   1.474       .  S
C1253      C1638   1.497       .  S
C1254      C3274   1.497       .  S
O1255      C1268   1.267       .  A
O1255     Co1263   2.032       .  S
O1256      C1269   1.280       .  A
O1256     Co1264   2.037       .  S
O1257      C1270   1.269       .  A
O1257     Co1265   1.906       .  S
O1258      C1271   1.257       .  A
O1258     Co1266   1.953       .  S
O1259      C1271   1.269       .  A
O1259     Co1264   2.011       .  S
O1260      C1270   1.299       .  A
O1260     Co1263   2.110       .  S
O1261      C1268   1.252       .  A
O1261     Co1266   1.971       .  S
O1262      C1269   1.268       .  A
O1262     Co1265   1.972       .  S
Co1263     O1267   2.010       .  S
Co1264     O1267   2.028       .  S
Co1265     O1267   2.033       .  S
Co1266     O1267   2.037       .  S
C1268      C1591   1.483       .  S
C1269      C1631   1.492       .  S
C1270      C1651   1.489       .  S
C1271      C1608   1.458       .  S
O1272      C1280   1.269       .  A
O1272     Co1292   1.895       .  S
O1273      C1281   1.264       .  A
O1273     Co1293   2.000       .  S
O1274      C1282   1.303   1_655  A
O1274     Co2950   2.089       .  S
O1275      C1283   1.268       .  A
O1275     Co1295   2.024       .  S
O1276      C2938   1.269       .  A
O1276     Co1293   1.885       .  S
O1277      C1283   1.255       .  A
O1277     Co1292   1.973       .  S
O1278      C1281   1.269       .  A
O1278     Co1295   2.013       .  S
O1279      C1280   1.292       .  A
O1279     Co1294   2.037       .  S
C1280      C1528   1.459       .  S
C1282      O2932   1.269   1_455  A
C1282      C1558   1.480       .  S
C1283      C1551   1.484       .  S
O1284      C1297   1.274       .  A
O1284     Co1292   2.025       .  S
O1285      C1298   1.240       .  A
O1285     Co1293   1.971       .  S
O1286      C1299   1.253       .  A
O1286     Co1294   1.986       .  S
O1287      C1300   1.257       .  A
O1287     Co1295   1.970       .  S
O1288      C1300   1.265       .  A
O1288     Co1293   1.976       .  S
O1289      C1299   1.243       .  A
O1289     Co1292   1.942       .  S
O1290      C1297   1.256       .  A
O1290     Co1295   1.953       .  S
O1291      C1298   1.243       .  A
O1291     Co1294   1.970       .  S
Co1292     O1296   1.940       .  S
Co1293     O1296   1.905       .  S
Co1294     O2930   2.089       .  S
Co1294     O1296   2.230       .  S
Co1295     O1296   2.073       .  S
C1297      C1568   1.482       .  S
C1298      C1518   1.455       .  S
C1299      C1611   1.468       .  S
C1300      C1538   1.447       .  S
O1301      C1309   1.250       .  A
O1301     Co1321   1.977       .  S
O1302      C1310   1.279       .  A
O1302     Co1322   2.044       .  S
O1303      C1311   1.255       .  A
O1303     Co1323   2.019       .  S
O1304      C1312   1.250       .  A
O1304     Co1324   1.939       .  S
O1305      C1311   1.250       .  A
O1305     Co1322   1.994       .  S
O1306      C1312   1.270       .  A
O1306     Co1321   2.029       .  S
O1307      C1310   1.254       .  A
O1307     Co1324   1.931       .  S
O1308      C1309   1.246       .  A
O1308     Co1323   1.952       .  S
C1309      C3164   1.468   1_455  S
C1310      C1458   1.488       .  S
C1312      C1581   1.473       .  S
O1313      C1326   1.258       .  A
O1313     Co1321   1.988       .  S
O1314      C1327   1.282       .  A
O1314     Co1322   1.936       .  S
O1315      C1328   1.297       .  A
O1315     Co1323   2.060       .  S
O1316      C1329   1.260       .  A
O1316     Co1324   1.993       .  S
O1317      C1329   1.256       .  A
O1317     Co1322   2.001       .  S
O1318      C1328   1.272       .  A
O1318     Co1321   1.913       .  S
O1319      C1326   1.269       .  A
O1319     Co1324   2.025       .  S
O1320      C1327   1.285       .  A
O1320     Co1323   2.021       .  S
Co1321     O1325   1.967       .  S
Co1322     O1325   1.973       .  S
Co1323     O1325   2.229       .  S
Co1324     O1325   2.067       .  S
C1326      C1491   1.494       .  S
C1327      C1471   1.471       .  S
C1328      C1588   1.487       .  S
C1329      C1498   1.492       .  S
O1330      C1338   1.278       .  A
O1330     Co1350   2.048       .  S
O1331      C1339   1.251       .  A
O1331     Co1351   1.988       .  S
O1332      C1340   1.258       .  A
O1332     Co1352   1.947       .  S
O1333      C1341   1.258       .  A
O1333     Co1353   2.009       .  S
O1334      C1340   1.272       .  A
O1334     Co1351   2.025       .  S
O1335      C1341   1.248       .  A
O1335     Co1350   1.968       .  S
O1336      C1339   1.255       .  A
O1336     Co1353   2.003       .  S
O1337      C1338   1.257       .  A
O1337     Co1352   1.952       .  S
C1338      C1441   1.484       .  S
C1340      C1468   1.459       .  S
C1341      C1561   1.490       .  S
O1342      C1355   1.279       .  A
O1342     Co1350   1.946       .  S
O1343      C1356   1.259       .  A
O1343     Co1351   1.980       .  S
O1344      C1357   1.266       .  A
O1344     Co1352   2.022       .  S
O1345      C1358   1.288       .  A
O1345     Co1353   2.055       .  S
O1346      C1358   1.275       .  A
O1346     Co1351   1.923       .  S
O1347      C1357   1.256       .  A
O1347     Co1350   1.995       .  S
O1348      C1355   1.278       .  A
O1348     Co1353   2.014       .  S
O1349      C1356   1.263       .  A
O1349     Co1352   2.004       .  S
Co1350     O1354   1.992       .  S
Co1351     O1354   1.964       .  S
Co1352     O1354   2.072       .  S
Co1353     O1354   2.222       .  S
C1355      C1451   1.475       .  S
C1356      C1571   1.478       .  S
C1357      C1628   1.482       .  S
C1358      C1461   1.471       .  S
O1359      C1367   1.270       .  A
O1359     Co1379   2.031       .  S
O1360      C1368   1.293       .  A
O1360     Co1380   2.033       .  S
O1361      C1369   1.270       .  A
O1361     Co1381   1.896       .  S
O1362      C1370   1.265       .  A
O1362     Co1382   2.010       .  S
O1363      C1369   1.293       .  A
O1363     Co1380   2.048       .  S
O1364      C1370   1.268       .  A
O1364     Co1379   2.020       .  S
O1365      C1368   1.277       .  A
O1365     Co1382   1.915       .  S
O1366      C1367   1.262       .  A
O1366     Co1381   2.009       .  S
C1367      C3074   1.490   1_455  S
C1368      C1448   1.457       .  S
C1369      C1521   1.472       .  S
C1370      C1481   1.502       .  S
O1371      C1384   1.264       .  A
O1371     Co1379   1.984       .  S
O1372      C1385   1.255       .  A
O1372     Co1380   1.998       .  S
O1373      C1386   1.257       .  A
O1373     Co1381   1.981       .  S
O1374      C1387   1.243       .  A
O1374     Co1382   1.968       .  S
O1375      C1387   1.250       .  A
O1375     Co1380   1.976       .  S
O1376      C1386   1.255       .  A
O1376     Co1379   1.963       .  S
O1377      C1384   1.275       .  A
O1377     Co1382   2.013       .  S
O1378      C1385   1.250       .  A
O1378     Co1381   1.990       .  S
Co1379     O1383   2.065       .  S
Co1380     O1383   2.241       .  S
Co1381     O1383   1.943       .  S
Co1382     O1383   1.935       .  S
C1384      C1438   1.492       .  S
C1385      C1488   1.500       .  S
C1386      C1531   1.452       .  S
C1387      C1431   1.472       .  S
O1388      C1396   1.263       .  A
O1388     Co1408   1.864       .  S
O1389      C1397   1.241       .  A
O1389     Co1409   1.913       .  S
O1390      C1398   1.268       .  A
O1390     Co1410   2.056       .  S
O1391      C1399   1.281       .  A
O1391     Co1411   2.045       .  S
O1392      C1398   1.243       .  A
O1392     Co1409   1.944       .  S
O1393      C1399   1.267       .  A
O1393     Co1408   1.986       .  S
O1394      C1397   1.269       .  A
O1394     Co1411   2.026       .  S
O1395      C1396   1.291       .  A
O1395     Co1410   2.091       .  S
C1396      C1511   1.462       .  S
C1397      C1541   1.466       .  S
C1398      C1641   1.488       .  S
O1400      C1413   1.263       .  A
O1400     Co1408   1.997       .  S
O1401      C1414   1.279       .  A
O1401     Co1409   2.024       .  S
O1402      C1415   1.272       .  A
O1402     Co1410   1.921       .  S
O1403      C1416   1.262       .  A
O1403     Co1411   1.966       .  S
O1404      C1416   1.272       .  A
O1404     Co1409   2.020       .  S
O1405      C1415   1.295       .  A
O1405     Co1408   2.093       .  S
O1406      C1413   1.254       .  A
O1406     Co1411   1.972       .  S
O1407      C1414   1.266       .  A
O1407     Co1410   1.955       .  S
Co1408     O1412   1.983       .  S
Co1409     O1412   1.992       .  S
Co1410     O1412   2.045       .  S
Co1411     O1412   2.058       .  S
C1413      C1548   1.485       .  S
C1414      C1428   1.472       .  S
C1415      C1648   1.496       .  S
C1416      C1501   1.492       .  S
C1417      C1418   1.399       .  A
C1417      C1422   1.408       .  A
C1417      H3080   1.083       .  S
C1418      C3023   1.490       .  S
C1418      C1419   1.412       .  A
C1419      C1420   1.405       .  A
C1419     Br1426   1.915       .  S
C1420      C1421   1.408       .  A
C1420      H1425   1.083       .  S
C1421      C1422   1.423       .  A
C1422     Br1423   1.912       .  S
H1424      C3073   1.083   1_455  S
C1427      C1428   1.407       .  A
C1427      C1432   1.398       .  A
C1427      H1434   1.084       .  S
C1428      C1429   1.407       .  A
C1429      C1430   1.390       .  A
C1429     Br1436   1.913       .  S
C1430      C1431   1.403       .  A
C1430      H1435   1.083       .  S
C1431      C1432   1.410       .  A
C1432     Br1433   1.921       .  S
C1437      C1438   1.401       .  A
C1437      C1442   1.396       .  A
C1437      H1444   1.083       .  S
C1438      C1439   1.421       .  A
C1439      C1440   1.408       .  A
C1439     Br1446   1.920       .  S
C1440      C1441   1.401       .  A
C1440      H1445   1.083       .  S
C1441      C1442   1.417       .  A
C1442     Br1443   1.925       .  S
C1447      C1448   1.391       .  A
C1447      H1454   1.083       .  S
C1448      C1449   1.407       .  A
C1449      C1450   1.403       .  A
C1449     Br1456   1.918       .  S
C1451      C1452   1.419       .  A
C1452     Br1453   1.920       .  S
C1457      C1462   1.413       .  A
C1457      H1464   1.083       .  S
C1458      C1459   1.423       .  A
C1459     Br1466   1.932       .  S
C1460      C1461   1.391       .  A
C1460      H1465   1.080       .  S
C1462     Br1463   1.915       .  S
C1467      C1468   1.394       .  A
C1467      C1472   1.386       .  A
C1467      H1474   1.084       .  S
C1468      C1469   1.408       .  A
C1469     Br1476   1.917       .  S
C1470      C1471   1.405   1_545  A
C1470      H1475   1.083       .  S
C1472     Br1473   1.922       .  S
C1477      C1478   1.407       .  A
C1477      C1482   1.410       .  A
C1477      H1484   1.083       .  S
C1478      C1479   1.418       .  A
C1479      C1480   1.406       .  A
C1480      C1481   1.403       .  A
C1480      H1485   1.083       .  S
C1481      C1482   1.417       .  A
C1482     Br1483   1.912       .  S
C1487      C1488   1.410       .  A
C1487      C1492   1.400       .  A
C1487      H1494   1.082       .  S
C1488      C1489   1.416       .  A
C1489      C1490   1.409       .  A
C1489     Br1496   1.920       .  S
C1490      C1491   1.410       .  A
C1490      H1495   1.083       .  S
C1491      C1492   1.410       .  A
C1492     Br1493   1.919       .  S
C1497      C1498   1.408       .  A
C1497      C1502   1.396       .  A
C1497      H1504   1.083       .  S
C1498      C1499   1.414       .  A
C1499      C1500   1.404       .  A
C1499     Br1506   1.920       .  S
C1500      C1501   1.410       .  A
C1500      H1505   1.083       .  S
C1501      C1502   1.415       .  A
C1502     Br1503   1.925       .  S
C1507      C1508   1.406       .  A
C1507      C1512   1.402       .  A
C1507      H1514   1.083       .  S
C1508      C2965   1.468       .  S
C1508      C1509   1.417       .  A
C1509      C1510   1.379       .  A
C1509     Br3172   1.930       .  S
C1510      C1511   1.395       .  A
C1510      H1515   1.085       .  S
C1511      C1512   1.410       .  A
C1512     Br1513   1.917       .  S
Br1516     C3165   1.930       .  S
C1517      C3174   1.398   1_455  A
C1517      H1524   1.085       .  S
C1518      C3173   1.398       .  A
C1519      C3176   1.397       .  A
C1519     Br1526   1.913       .  S
C1520      C3175   1.397       .  A
C1520      C1521   1.410   1_655  A
C1520      H1525   1.083       .  S
C1521      C1522   1.416       .  A
C1522     Br1523   1.927       .  S
C1527      C3184   1.400       .  A
C1527      C1532   1.375   1_655  A
C1527      H1534   1.083       .  S
C1528      C3183   1.400       .  A
C1528      C1529   1.408       .  A
C1529      C3186   1.401       .  A
C1529     Br1536   1.917       .  S
C1530      C3185   1.401       .  A
C1530      C1531   1.405   1_655  A
C1530      H3191   1.083       .  S
C1531      C1532   1.406       .  A
C1532     Br1533   1.927       .  S
H1535      C3186   1.083       .  S
C1537      C1542   1.377   1_546  A
C1537      H1544   1.085       .  S
C1539      C1540   1.397       .  A
C1539     Br1546   1.912       .  S
C1540      H1545   1.083       .  S
C1542     Br1543   1.930   1_554  S
C1547      C1548   1.403   1_545  A
C1547      H1554   1.083       .  S
C1549      C1550   1.402       .  A
C1549     Br1556   1.923       .  S
C1550      C1551   1.405       .  A
C1550      H1555   1.083       .  S
C1551      C1552   1.411       .  A
C1552     Br1553   1.909       .  S
C1557      C1558   1.400       .  A
C1557      C1562   1.393       .  A
C1557      H1564   1.084       .  S
C1558      C1559   1.410       .  A
C1559      C1560   1.406       .  A
C1559     Br1566   1.918       .  S
C1560      C1561   1.410       .  A
C1560      H1565   1.083       .  S
C1561      C1562   1.410       .  A
C1562     Br1563   1.903       .  S
C1567      C1568   1.405       .  A
C1567      C1572   1.401       .  A
C1567      H1574   1.083       .  S
C1568      C1569   1.418       .  A
C1569      C1570   1.393       .  A
C1569     Br1576   1.926       .  S
C1570      C1571   1.400       .  A
C1570      H1575   1.083       .  S
C1571      C1572   1.413       .  A
C1572     Br1573   1.921       .  S
C1577      C1582   1.399       .  A
C1577      H1584   1.079       .  S
C1578      C3235   1.403       .  A
C1579      C3234   1.403   1_455  A
C1579      C1580   1.397       .  A
C1579     Br1586   1.919       .  S
C1580      H1585   1.084       .  S
C1581      C3238   1.403   1_455  A
C1582      C3237   1.403       .  A
C1582     Br1583   1.918       .  S
C1587      C1588   1.402       .  A
C1587      C1592   1.401       .  A
C1587      H1594   1.084       .  S
C1588      C3245   1.418   1_455  A
C1589      C3244   1.418       .  A
C1589      C1590   1.405       .  A
C1589     Br1596   1.921       .  S
C1590      C1591   1.400       .  A
C1590      H1595   1.079       .  S
C1591      C3248   1.411       .  A
C1592      C3247   1.411   1_455  A
C1592     Br1593   1.911       .  S
C1597      C1598   1.405       .  A
C1597      C1602   1.401   1_565  A
C1597      H1604   1.084       .  S
C1598      C1599   1.411       .  A
C1599      C1600   1.399       .  A
C1599     Br1606   1.921       .  S
C1600      C1601   1.411   1_565  A
C1600      H1605   1.083       .  S
C1601      C1602   1.417       .  A
C1607      C1608   1.401       .  A
C1607      C1612   1.395       .  A
C1607      H1614   1.084       .  S
C1608      C1609   1.405       .  A
C1609      C1610   1.391       .  A
C1609     Br1616   1.920       .  S
C1610      C1611   1.406       .  A
C1610      H1615   1.084       .  S
C1611      C1612   1.411       .  A
C1612     Br1613   1.920       .  S
C1617      C1618   1.405       .  A
C1617      C1622   1.402       .  A
C1617      H1624   1.078       .  S
C1618      C2910   1.497   1_455  S
C1618      C1619   1.411       .  A
C1619      C1620   1.407       .  A
C1619     Br3282   1.920       .  S
C1620      C1621   1.410       .  A
C1621      C1622   1.414       .  A
C1622     Br1623   1.916       .  S
Br1626     C3275   1.920       .  S
C1627      C1628   1.401       .  A
C1627      C1632   1.399       .  A
C1627      H1634   1.084       .  S
C1628      C1629   1.409       .  A
C1629      C1630   1.405       .  A
C1629     Br1636   1.917       .  S
C1630      C1631   1.409       .  A
C1630      H1635   1.084       .  S
C1631      C1632   1.416       .  A
C1632     Br1633   1.919       .  S
C1637      C1638   1.400       .  A
C1637      C1642   1.408   1_556  A
C1637      H1644   1.083       .  S
C1639      C1640   1.405       .  A
C1639     Br1646   1.916       .  S
C1640      C1641   1.395       .  A
C1640      H1645   1.083       .  S
C1642     Br1643   1.919       .  S
C1647      C1648   1.409       .  A
C1647      C1652   1.408       .  A
C1647      H1654   1.083       .  S
C1648      C1649   1.415       .  A
C1649      C1650   1.403       .  A
C1649     Br1656   1.918       .  S
C1650      C1651   1.403       .  A
C1650      H1655   1.084       .  S
C1651      C1652   1.410       .  A
C1652     Br1653   1.916       .  S
O1657      C1665   1.267       .  A
O1657     Co1677   1.893       .  S
O1658      C1666   1.256       .  A
O1658     Co1678   1.947       .  S
O1659      C1667   1.270       .  A
O1659     Co1679   2.058       .  S
O1660      C1668   1.280       .  A
O1660     Co1680   2.038       .  S
O1661      C1667   1.247       .  A
O1661     Co1678   1.950       .  S
O1662      C1668   1.269       .  A
O1662     Co1677   1.982       .  S
O1663      C1666   1.272       .  A
O1663     Co1680   2.031       .  S
O1664      C1665   1.298       .  A
O1664     Co1679   2.100       .  S
C1665      C2012   1.487       .  S
C1666      C1992   1.474       .  S
C1667      C2052   1.497       .  S
O1669      C1682   1.267       .  A
O1669     Co1677   2.032       .  S
O1670      C1683   1.280       .  A
O1670     Co1678   2.037       .  S
O1671      C1684   1.269       .  A
O1671     Co1679   1.906       .  S
O1672      C1685   1.257       .  A
O1672     Co1680   1.953       .  S
O1673      C1685   1.269       .  A
O1673     Co1678   2.011       .  S
O1674      C1684   1.299       .  A
O1674     Co1677   2.110       .  S
O1675      C1682   1.252       .  A
O1675     Co1680   1.971       .  S
O1676      C1683   1.268       .  A
O1676     Co1679   1.972       .  S
Co1677     O1681   2.010       .  S
Co1678     O1681   2.028       .  S
Co1679     O1681   2.033       .  S
Co1680     O1681   2.037       .  S
C1682      C2005   1.483       .  S
C1683      C2045   1.492       .  S
C1684      C2065   1.489       .  S
C1685      C2022   1.458       .  S
O1686      C1694   1.269       .  A
O1686     Co1706   1.895       .  S
O1687      C1695   1.264       .  A
O1687     Co1707   2.000       .  S
O1688      C1696   1.303       .  A
O1689      C1697   1.268       .  A
O1689     Co1709   2.024       .  S
O1690     Co1707   1.885       .  S
O1691      C1697   1.255       .  A
O1691     Co1706   1.973       .  S
O1692      C1695   1.269       .  A
O1692     Co1709   2.013       .  S
O1693      C1694   1.292       .  A
O1693     Co1708   2.037       .  S
C1694      C1942   1.459       .  S
C1695      C2843   1.499       .  S
C1696      C1972   1.480       .  S
C1697      C1965   1.484       .  S
O1698      C1711   1.274       .  A
O1698     Co1706   2.025       .  S
O1699      C1712   1.240       .  A
O1699     Co1707   1.971       .  S
O1700      C1713   1.253       .  A
O1700     Co1708   1.986       .  S
O1701      C1714   1.257       .  A
O1701     Co1709   1.970       .  S
O1702      C1714   1.265       .  A
O1702     Co1707   1.976       .  S
O1703      C1713   1.243       .  A
O1703     Co1706   1.942       .  S
O1704      C1711   1.256       .  A
O1704     Co1709   1.953       .  S
O1705      C1712   1.243       .  A
O1705     Co1708   1.970       .  S
Co1706     O1710   1.940       .  S
Co1707     O1710   1.905       .  S
Co1708     O1710   2.230       .  S
Co1709     O1710   2.073       .  S
C1711      C1982   1.482       .  S
C1712      C1932   1.455       .  S
C1713      C2025   1.468       .  S
C1714      C1952   1.447       .  S
O1715      C1723   1.250       .  A
O1715     Co1735   1.977       .  S
O1716      C1724   1.279       .  A
O1716     Co1736   2.044       .  S
O1717      C1725   1.255       .  A
O1717     Co1737   2.019       .  S
O1718      C1726   1.250       .  A
O1718     Co1738   1.939       .  S
O1719      C1725   1.250       .  A
O1719     Co1736   1.994       .  S
O1720      C1726   1.270       .  A
O1720     Co1735   2.029       .  S
O1721      C1724   1.254       .  A
O1721     Co1738   1.932       .  S
O1722      C1723   1.246       .  A
O1722     Co1737   1.952       .  S
C1724      C1872   1.488       .  S
C1725      C2720   1.507       .  S
C1726      C1995   1.473       .  S
O1727      C1740   1.258       .  A
O1727     Co1735   1.988       .  S
O1728      C1741   1.282       .  A
O1728     Co1736   1.936       .  S
O1729      C1742   1.297       .  A
O1729     Co1737   2.060       .  S
O1730      C1743   1.260       .  A
O1730     Co1738   1.993       .  S
O1731      C1743   1.256       .  A
O1731     Co1736   2.001       .  S
O1732      C1742   1.272       .  A
O1732     Co1735   1.913       .  S
O1733      C1740   1.269       .  A
O1733     Co1738   2.025       .  S
O1734      C1741   1.285       .  A
O1734     Co1737   2.021       .  S
Co1735     O1739   1.967       .  S
Co1736     O1739   1.973       .  S
Co1737     O1739   2.229       .  S
Co1738     O1739   2.067       .  S
C1740      C1905   1.494       .  S
C1741      C1885   1.471       .  S
C1742      C2002   1.487       .  S
C1743      C1912   1.492       .  S
O1744      C1752   1.278       .  A
O1744     Co1764   2.048       .  S
O1745      C1753   1.251       .  A
O1745     Co1765   1.988       .  S
O1746      C1754   1.258       .  A
O1746     Co1766   1.947       .  S
O1747      C1755   1.258       .  A
O1747     Co1767   2.009       .  S
O1748      C1754   1.272       .  A
O1748     Co1765   2.025       .  S
O1749      C1755   1.248       .  A
O1749     Co1764   1.968       .  S
O1750      C1753   1.255       .  A
O1750     Co1767   2.003       .  S
O1751      C1752   1.257       .  A
O1751     Co1766   1.952       .  S
C1752      C1855   1.484       .  S
C1753      C2863   1.505   1_545  S
C1754      C1882   1.459       .  S
C1755      C1975   1.490       .  S
O1756      C1769   1.279       .  A
O1756     Co1764   1.946       .  S
O1757      C1770   1.259       .  A
O1757     Co1765   1.980       .  S
O1758      C1771   1.266       .  A
O1758     Co1766   2.022       .  S
O1759      C1772   1.288       .  A
O1759     Co1767   2.055       .  S
O1760      C1772   1.275       .  A
O1760     Co1765   1.923       .  S
O1761      C1771   1.256       .  A
O1761     Co1764   1.995       .  S
O1762      C1769   1.278       .  A
O1762     Co1767   2.014       .  S
O1763      C1770   1.263       .  A
O1763     Co1766   2.004       .  S
Co1764     O1768   1.992       .  S
Co1765     O1768   1.964       .  S
Co1766     O1768   2.072       .  S
Co1767     O1768   2.222       .  S
C1769      C1865   1.475       .  S
C1770      C1985   1.478       .  S
C1771      C2042   1.482       .  S
C1772      C1875   1.471       .  S
O1773      C1781   1.270       .  A
O1773     Co1793   2.031       .  S
O1774      C1782   1.293       .  A
O1774     Co1794   2.033       .  S
O1775      C1783   1.270       .  A
O1775     Co1795   1.896       .  S
O1776      C1784   1.265       .  A
O1776     Co1796   2.010       .  S
O1777      C1783   1.293       .  A
O1777     Co1794   2.048       .  S
O1778      C1784   1.268       .  A
O1778     Co1793   2.020       .  S
O1779      C1782   1.277       .  A
O1779     Co1796   1.915       .  S
O1780      C1781   1.262       .  A
O1780     Co1795   2.009       .  S
C1782      C1862   1.457       .  S
C1783      C1935   1.472       .  S
C1784      C1895   1.502       .  S
O1785      C1798   1.264       .  A
O1785     Co1793   1.984       .  S
O1786      C1799   1.255       .  A
O1786     Co1794   1.998       .  S
O1787      C1800   1.257       .  A
O1787     Co1795   1.981       .  S
O1788      C1801   1.243       .  A
O1788     Co1796   1.968       .  S
O1789      C1801   1.250       .  A
O1789     Co1794   1.976       .  S
O1790      C1800   1.255       .  A
O1790     Co1793   1.963       .  S
O1791      C1798   1.275       .  A
O1791     Co1796   2.013       .  S
O1792      C1799   1.250       .  A
O1792     Co1795   1.990       .  S
Co1793     O1797   2.065       .  S
Co1794     O1797   2.241       .  S
Co1795     O1797   1.943       .  S
Co1796     O1797   1.935       .  S
C1798      C1852   1.492       .  S
C1799      C1902   1.500       .  S
C1800      C1945   1.452       .  S
C1801      C1845   1.472       .  S
O1802      C1810   1.263       .  A
O1802     Co1822   1.864       .  S
O1803      C1811   1.241       .  A
O1803     Co1823   1.913       .  S
O1804      C1812   1.268       .  A
O1804     Co1824   2.056       .  S
O1805      C1813   1.281       .  A
O1805     Co1825   2.045       .  S
O1806      C1812   1.243       .  A
O1806     Co1823   1.944       .  S
O1807      C1813   1.267       .  A
O1807     Co1822   1.986       .  S
O1808      C1811   1.269       .  A
O1808     Co1825   2.026       .  S
O1809      C1810   1.291       .  A
O1809     Co1824   2.090       .  S
C1810      C1925   1.462       .  S
C1811      C1955   1.466       .  S
C1812      C2055   1.488       .  S
C1813      C2663   1.507       .  S
O1814      C1827   1.263       .  A
O1814     Co1822   1.997       .  S
O1815      C1828   1.279       .  A
O1815     Co1823   2.023       .  S
O1816      C1829   1.272       .  A
O1816     Co1824   1.921       .  S
O1817      C1830   1.262       .  A
O1817     Co1825   1.966       .  S
O1818      C1830   1.272       .  A
O1818     Co1823   2.020       .  S
O1819      C1829   1.295       .  A
O1819     Co1822   2.093       .  S
O1820      C1827   1.254       .  A
O1820     Co1825   1.972       .  S
O1821      C1828   1.266       .  A
O1821     Co1824   1.955       .  S
Co1822     O1826   1.983       .  S
Co1823     O1826   1.992       .  S
Co1824     O1826   2.045       .  S
Co1825     O1826   2.058       .  S
C1827      C1962   1.485       .  S
C1828      C1842   1.472       .  S
C1829      C2062   1.496       .  S
C1830      C1915   1.492       .  S
C1831      C1832   1.399       .  A
C1831      C1836   1.408       .  A
C1832      C1833   1.412       .  A
C1833      C1834   1.405       .  A
C1833     Br1840   1.915       .  S
C1834      C1835   1.408       .  A
C1834      H1839   1.083       .  S
C1835      C2641   1.507   1_545  S
C1835      C1836   1.423       .  A
C1836     Br1837   1.912   1_545  S
C1841      C1842   1.407       .  A
C1841      C1846   1.398       .  A
C1841      H1848   1.084       .  S
C1842      C1843   1.407       .  A
C1843      C1844   1.390       .  A
C1843     Br1850   1.913       .  S
C1844      C1845   1.403       .  A
C1844      H1849   1.083       .  S
C1845      C1846   1.410       .  A
C1846     Br1847   1.921       .  S
C1851      C1852   1.401       .  A
C1851      C1856   1.396       .  A
C1851      H1858   1.083       .  S
C1852      C1853   1.421       .  A
C1853      C1854   1.408       .  A
C1853     Br1860   1.920       .  S
C1854      C1855   1.401       .  A
C1854      H1859   1.083       .  S
C1855      C1856   1.417       .  A
C1856     Br1857   1.925       .  S
C1861      C1862   1.391       .  A
C1861      C2280   1.388   1_554  A
C1861      H1868   1.083       .  S
C1862      C1863   1.407       .  A
C1863      C1864   1.403   1_554  A
C1863     Br1870   1.918       .  S
C1864      C2279   1.404       .  A
C1864      H2283   1.083       .  S
C1865      C2278   1.404       .  A
C1865      C1866   1.419       .  A
C1866      C2275   1.388       .  A
C1866     Br1867   1.920       .  S
H1869      C2278   1.083       .  S
C1871      C2700   1.409   1_545  A
C1871      C1876   1.413   1_554  A
C1871      H1878   1.083       .  S
C1872      C2699   1.409       .  A
C1872      C1873   1.423       .  A
C1873      C3116   1.385   1_554  A
C1873     Br1880   1.931       .  S
C1874      C3115   1.385   1_545  A
C1874      C1875   1.391       .  A
C1874      H1879   1.080       .  S
C1875      C2290   1.411       .  A
C1876      C2289   1.411       .  A
C1876     Br1877   1.915       .  S
C1881      C1882   1.394       .  A
C1881      C1886   1.386   1_545  A
C1881      H1888   1.084       .  S
C1882      C1883   1.408       .  A
C1883      C2712   1.405       .  A
C1883     Br1890   1.917       .  S
C1884      C2711   1.405       .  A
C1884      C1885   1.405       .  A
C1884      H1889   1.083       .  S
C1885      C2714   1.415       .  A
C1886      C2713   1.415       .  A
C1886     Br1887   1.922       .  S
C1891      C1892   1.407       .  A
C1891      C1896   1.410       .  A
C1891      H1898   1.083       .  S
C1892      C2553   1.507   1_545  S
C1892      C1893   1.418       .  A
C1893      C1894   1.406       .  A
C1893     Br2728   1.908   1_545  S
C1894      C1895   1.403       .  A
C1894      H1899   1.083       .  S
C1895      C1896   1.417       .  A
C1896     Br1897   1.912       .  S
Br1900     C2721   1.908       .  S
C1901      C1902   1.410       .  A
C1901      C1906   1.400       .  A
C1901      H1908   1.082       .  S
C1902      C1903   1.416       .  A
C1903      C1904   1.409       .  A
C1903     Br1910   1.920       .  S
C1904      C1905   1.410       .  A
C1904      H1909   1.083       .  S
C1905      C1906   1.410       .  A
C1906     Br1907   1.919       .  S
C1911      C1912   1.408       .  A
C1911      C1916   1.396       .  A
C1911      H1918   1.083       .  S
C1912      C1913   1.414       .  A
C1913      C1914   1.404       .  A
C1913     Br1920   1.920       .  S
C1914      C1915   1.410       .  A
C1914      H1919   1.083       .  S
C1915      C1916   1.415       .  A
C1916     Br1917   1.925       .  S
C1921      C1922   1.406       .  A
C1921      C1926   1.402       .  A
C1921      H1928   1.083       .  S
C1922      C1923   1.417       .  A
C1923      C1924   1.379       .  A
C1924      C1925   1.395       .  A
C1924      H1929   1.085       .  S
C1925      C1926   1.410       .  A
C1926     Br1927   1.917       .  S
C1931      C2350   1.386       .  A
C1931      H1938   1.085       .  S
C1932      C2347   1.400       .  A
C1933      C2346   1.400   1_554  A
C1933     Br1940   1.913       .  S
C1934      C1935   1.410       .  A
C1934      H1939   1.083       .  S
C1935      C1936   1.416       .  A
C1936      C2345   1.386   1_554  A
C1936     Br1937   1.927   1_554  S
C1941      C1946   1.375       .  A
C1941      H1948   1.083       .  S
C1942      C1943   1.408       .  A
C1943     Br1950   1.917       .  S
C1944      C1945   1.405       .  A
C1945      C1946   1.406       .  A
C1946     Br1947   1.927       .  S
C1951      C2780   1.390       .  A
C1951      C1956   1.377       .  A
C1951      H1958   1.085       .  S
C1952      C2779   1.390       .  A
C1952      C2367   1.404       .  A
C1953      C2366   1.404   1_554  A
C1953      C1954   1.397       .  A
C1953     Br1960   1.912       .  S
C1954      C2783   1.405   1_545  A
C1954      H1959   1.083       .  S
C1955      C2782   1.405       .  A
C1955      C2370   1.423       .  A
C1956      C2369   1.423       .  A
C1956     Br1957   1.930       .  S
C1961      C1962   1.403       .  A
C1961      C2794   1.392       .  A
C1961      H1968   1.083       .  S
C1962      C2791   1.417       .  A
C1963      C2790   1.417       .  A
C1963      C1964   1.402   1_565  A
C1963     Br1970   1.923       .  S
C1964      C1965   1.405       .  A
C1964      H1969   1.083       .  S
C1965      C1966   1.411       .  A
C1966      C2789   1.392       .  A
C1966     Br1967   1.909       .  S
C1971      C1972   1.400       .  A
C1971      C1976   1.393       .  A
C1971      H1978   1.084       .  S
C1972      C1973   1.410       .  A
C1973      C1974   1.406       .  A
C1973     Br1980   1.918       .  S
C1974      C1975   1.410       .  A
C1974      H1979   1.083       .  S
C1975      C1976   1.410       .  A
C1976     Br1977   1.903       .  S
C1981      C1982   1.405       .  A
C1981      C1986   1.401       .  A
C1981      H1988   1.083       .  S
C1982      C1983   1.418       .  A
C1983      C1984   1.393       .  A
C1983     Br1990   1.926       .  S
C1984      C1985   1.400       .  A
C1984      H1989   1.083       .  S
C1985      C1986   1.413       .  A
C1986     Br1987   1.921       .  S
C1991      C2406   1.409       .  A
C1991      C1996   1.399   1_556  A
C1991      H1998   1.079   1_556  S
C1992      C2405   1.409       .  A
C1993      C1994   1.397       .  A
C1993     Br2000   1.919       .  S
C1994      C2409   1.411       .  A
C1994      H1999   1.084       .  S
C1995      C2408   1.411   1_554  A
C1996     Br1997   1.918       .  S
C2001      C2002   1.402       .  A
C2001      C2006   1.401       .  A
C2001      H2008   1.084       .  S
C2003      C2004   1.405       .  A
C2003     Br2010   1.921       .  S
C2004      C2005   1.400       .  A
C2004      H2009   1.079       .  S
C2006     Br2007   1.911       .  S
C2011      C2012   1.405       .  A
C2011      C2016   1.401       .  A
C2011      H2018   1.084       .  S
C2012      C2013   1.411       .  A
C2013      C2014   1.399       .  A
C2013     Br2020   1.921       .  S
C2014      C2015   1.411       .  A
C2014      H2019   1.083       .  S
C2015      C2523   1.499       .  S
C2015      C2016   1.417       .  A
C2016     Br2845   1.912       .  S
Br2017     C2844   1.912       .  S
C2021      C2022   1.401       .  A
C2021      C2026   1.395       .  A
C2021      H2028   1.084       .  S
C2022      C2023   1.405       .  A
C2023      C2024   1.391       .  A
C2023     Br2030   1.920       .  S
C2024      C2025   1.406       .  A
C2024      H2029   1.084       .  S
C2025      C2026   1.411       .  A
C2026     Br2027   1.920       .  S
C2031      C2032   1.405       .  A
C2031      C2036   1.402       .  A
C2031      H2038   1.078       .  S
C2032      C2033   1.411       .  A
C2033      C2034   1.407       .  A
C2034      C2035   1.410       .  A
C2034      H2867   1.081       .  S
C2035      C2581   1.505       .  S
C2035      C2036   1.414       .  A
C2036     Br2037   1.916       .  S
H2039      C2862   1.081       .  S
C2041      C2042   1.401       .  A
C2041      C2046   1.399       .  A
C2041      H2048   1.084       .  S
C2042      C2043   1.409       .  A
C2043      C2044   1.405       .  A
C2043     Br2050   1.917       .  S
C2044      C2045   1.409       .  A
C2044      H2049   1.084       .  S
C2045      C2046   1.416       .  A
C2046     Br2047   1.919       .  S
C2051      C2052   1.400       .  A
C2051      C2056   1.408       .  A
C2051      H2058   1.083       .  S
C2052      C2467   1.422       .  A
C2053      C2466   1.422   1_554  A
C2053      C2054   1.405       .  A
C2053     Br2060   1.916   1_554  S
C2054      C2055   1.395       .  A
C2054      H2059   1.083       .  S
C2055      C2470   1.419       .  A
C2056      C2469   1.419       .  A
C2056     Br2057   1.919       .  S
C2061      C2062   1.409       .  A
C2061      C2066   1.408       .  A
C2061      H2068   1.083       .  S
C2062      C2063   1.415       .  A
C2063      C2064   1.403       .  A
C2063     Br2070   1.918       .  S
C2064      C2065   1.403       .  A
C2064      H2069   1.084       .  S
C2065      C2066   1.410       .  A
C2066     Br2067   1.916       .  S
O2071      C2079   1.267       .  A
O2071     Co2091   1.893       .  S
O2072      C2080   1.256       .  A
O2072     Co2092   1.947       .  S
O2073      C2081   1.270       .  A
O2073     Co2093   2.058       .  S
O2074      C2082   1.280       .  A
O2074     Co2094   2.038       .  S
O2075      C2081   1.247       .  A
O2075     Co2092   1.950       .  S
O2076      C2082   1.269       .  A
O2076     Co2091   1.982       .  S
O2077      C2080   1.272       .  A
O2077     Co2094   2.031       .  S
O2078      C2079   1.298       .  A
O2078     Co2093   2.100       .  S
C2079      C2426   1.487       .  S
C2080      C2406   1.474       .  S
C2081      C2466   1.497       .  S
O2083      C2096   1.267       .  A
O2083     Co2091   2.032       .  S
O2084      C2097   1.280       .  A
O2084     Co2092   2.037       .  S
O2085      C2098   1.269       .  A
O2085     Co2093   1.906       .  S
O2086      C2099   1.257       .  A
O2086     Co2094   1.953       .  S
O2087      C2099   1.269       .  A
O2087     Co2092   2.011       .  S
O2088      C2098   1.299       .  A
O2088     Co2091   2.110       .  S
O2089      C2096   1.252       .  A
O2089     Co2094   1.971       .  S
O2090      C2097   1.268       .  A
O2090     Co2093   1.972       .  S
Co2091     O2095   2.010       .  S
Co2092     O2095   2.028       .  S
Co2093     O2095   2.033       .  S
Co2094     O2095   2.037       .  S
C2096      C2419   1.483       .  S
C2097      C2459   1.492       .  S
C2098      C2479   1.489       .  S
C2099      C2436   1.458       .  S
O2100      C2108   1.269       .  A
O2100     Co2120   1.895       .  S
O2101      C2109   1.264       .  A
O2101     Co2121   2.000       .  S
O2102      C2110   1.303       .  A
O2103      C2111   1.268       .  A
O2103     Co2123   2.024       .  S
O2104     Co2121   1.885       .  S
O2105      C2111   1.255       .  A
O2105     Co2120   1.973       .  S
O2106      C2109   1.269       .  A
O2106     Co2123   2.013       .  S
O2107      C2108   1.292       .  A
O2107     Co2122   2.037       .  S
C2108      C2356   1.459       .  S
C2109      C3257   1.499       .  S
C2110      C2386   1.480       .  S
C2111      C2379   1.484       .  S
O2112      C2125   1.274       .  A
O2112     Co2120   2.025       .  S
O2113      C2126   1.240       .  A
O2113     Co2121   1.971       .  S
O2114      C2127   1.253       .  A
O2114     Co2122   1.986       .  S
O2115      C2128   1.257       .  A
O2115     Co2123   1.970       .  S
O2116      C2128   1.265       .  A
O2116     Co2121   1.976       .  S
O2117      C2127   1.243       .  A
O2117     Co2120   1.942       .  S
O2118      C2125   1.256       .  A
O2118     Co2123   1.953       .  S
O2119      C2126   1.243       .  A
O2119     Co2122   1.970       .  S
Co2120     O2124   1.940       .  S
Co2121     O2124   1.905       .  S
Co2122     O2124   2.230       .  S
Co2123     O2124   2.073       .  S
C2125      C2396   1.482       .  S
C2126      C2346   1.455       .  S
C2127      C2439   1.468       .  S
C2128      C2366   1.447       .  S
O2129      C2137   1.250       .  A
O2129     Co2149   1.977       .  S
O2130      C2138   1.279       .  A
O2130     Co2150   2.044       .  S
O2131      C2139   1.255       .  A
O2131     Co2151   2.019       .  S
O2132      C2140   1.250       .  A
O2132     Co2152   1.939       .  S
O2133      C2139   1.250       .  A
O2133     Co2150   1.994       .  S
O2134      C2140   1.270       .  A
O2134     Co2149   2.029       .  S
O2135      C2138   1.254       .  A
O2135     Co2152   1.932       .  S
O2136      C2137   1.246       .  A
O2136     Co2151   1.952       .  S
C2138      C2286   1.488       .  S
C2139      C3134   1.507       .  S
C2140      C2409   1.473       .  S
O2141      C2154   1.258       .  A
O2141     Co2149   1.988       .  S
O2142      C2155   1.282       .  A
O2142     Co2150   1.936       .  S
O2143      C2156   1.297       .  A
O2143     Co2151   2.060       .  S
O2144      C2157   1.260       .  A
O2144     Co2152   1.993       .  S
O2145      C2157   1.256       .  A
O2145     Co2150   2.001       .  S
O2146      C2156   1.272       .  A
O2146     Co2149   1.913       .  S
O2147      C2154   1.269       .  A
O2147     Co2152   2.025       .  S
O2148      C2155   1.285       .  A
O2148     Co2151   2.021       .  S
Co2149     O2153   1.967       .  S
Co2150     O2153   1.973       .  S
Co2151     O2153   2.229       .  S
Co2152     O2153   2.067       .  S
C2154      C2319   1.494       .  S
C2155      C2299   1.471       .  S
C2156      C2416   1.487       .  S
C2157      C2326   1.492       .  S
O2158      C2166   1.278       .  A
O2158     Co2178   2.048       .  S
O2159      C2167   1.251       .  A
O2159     Co2179   1.988       .  S
O2160      C2168   1.258       .  A
O2160     Co2180   1.947       .  S
O2161      C2169   1.258       .  A
O2161     Co2181   2.009       .  S
O2162      C2168   1.272       .  A
O2162     Co2179   2.025       .  S
O2163      C2169   1.248       .  A
O2163     Co2178   1.968       .  S
O2164      C2167   1.255       .  A
O2164     Co2181   2.003       .  S
O2165      C2166   1.257       .  A
O2165     Co2180   1.952       .  S
C2166      C2269   1.484       .  S
C2167      C3277   1.505   1_545  S
C2168      C2296   1.459       .  S
C2169      C2389   1.490       .  S
O2170      C2183   1.279       .  A
O2170     Co2178   1.946       .  S
O2171      C2184   1.259       .  A
O2171     Co2179   1.980       .  S
O2172      C2185   1.266       .  A
O2172     Co2180   2.022       .  S
O2173      C2186   1.288       .  A
O2173     Co2181   2.055       .  S
O2174      C2186   1.275       .  A
O2174     Co2179   1.923       .  S
O2175      C2185   1.256       .  A
O2175     Co2178   1.995       .  S
O2176      C2183   1.278       .  A
O2176     Co2181   2.014       .  S
O2177      C2184   1.263       .  A
O2177     Co2180   2.004       .  S
Co2178     O2182   1.992       .  S
Co2179     O2182   1.964       .  S
Co2180     O2182   2.072       .  S
Co2181     O2182   2.222       .  S
C2183      C2279   1.475       .  S
C2184      C2399   1.478       .  S
C2185      C2456   1.482       .  S
C2186      C2289   1.471       .  S
O2187      C2195   1.270       .  A
O2187     Co2207   2.031       .  S
O2188      C2196   1.293       .  A
O2188     Co2208   2.033       .  S
O2189      C2197   1.270       .  A
O2189     Co2209   1.896       .  S
O2190      C2198   1.265       .  A
O2190     Co2210   2.010       .  S
O2191      C2197   1.293       .  A
O2191     Co2208   2.048       .  S
O2192      C2198   1.268       .  A
O2192     Co2207   2.020       .  S
O2193      C2196   1.277       .  A
O2193     Co2210   1.915       .  S
O2194      C2195   1.262       .  A
O2194     Co2209   2.009       .  S
C2196      C2276   1.457       .  S
C2197      C2349   1.472       .  S
C2198      C2309   1.502       .  S
O2199      C2212   1.264       .  A
O2199     Co2207   1.984       .  S
O2200      C2213   1.255       .  A
O2200     Co2208   1.998       .  S
O2201      C2214   1.257       .  A
O2201     Co2209   1.981       .  S
O2202      C2215   1.243       .  A
O2202     Co2210   1.968       .  S
O2203      C2215   1.250       .  A
O2203     Co2208   1.976       .  S
O2204      C2214   1.255       .  A
O2204     Co2207   1.963       .  S
O2205      C2212   1.275       .  A
O2205     Co2210   2.013       .  S
O2206      C2213   1.250       .  A
O2206     Co2209   1.990       .  S
Co2207     O2211   2.065       .  S
Co2208     O2211   2.241       .  S
Co2209     O2211   1.943       .  S
Co2210     O2211   1.935       .  S
C2212      C2266   1.492       .  S
C2213      C2316   1.500       .  S
C2214      C2359   1.452       .  S
C2215      C2259   1.472       .  S
O2216      C2224   1.263       .  A
O2216     Co2236   1.864       .  S
O2217      C2225   1.241       .  A
O2217     Co2237   1.913       .  S
O2218      C2226   1.268       .  A
O2218     Co2238   2.056       .  S
O2219      C2227   1.281       .  A
O2219     Co2239   2.045       .  S
O2220      C2226   1.243       .  A
O2220     Co2237   1.944       .  S
O2221      C2227   1.267       .  A
O2221     Co2236   1.986       .  S
O2222      C2225   1.269       .  A
O2222     Co2239   2.026       .  S
O2223      C2224   1.291       .  A
O2223     Co2238   2.090       .  S
C2224      C2339   1.462       .  S
C2225      C2369   1.466       .  S
C2226      C2469   1.488       .  S
C2227      C3077   1.507       .  S
O2228      C2241   1.263       .  A
O2228     Co2236   1.997       .  S
O2229      C2242   1.279       .  A
O2229     Co2237   2.023       .  S
O2230      C2243   1.272       .  A
O2230     Co2238   1.921       .  S
O2231      C2244   1.262       .  A
O2231     Co2239   1.966       .  S
O2232      C2244   1.272       .  A
O2232     Co2237   2.020       .  S
O2233      C2243   1.295       .  A
O2233     Co2236   2.093       .  S
O2234      C2241   1.254       .  A
O2234     Co2239   1.972       .  S
O2235      C2242   1.266       .  A
O2235     Co2238   1.955       .  S
Co2236     O2240   1.983       .  S
Co2237     O2240   1.992       .  S
Co2238     O2240   2.045       .  S
Co2239     O2240   2.058       .  S
C2241      C2376   1.485       .  S
C2242      C2256   1.472       .  S
C2243      C2476   1.496       .  S
C2244      C2329   1.492       .  S
C2245      C2246   1.399       .  A
C2245      C2250   1.408       .  A
C2246      C2247   1.412       .  A
C2247      C2248   1.405       .  A
C2247     Br2254   1.915       .  S
C2248      C2249   1.408       .  A
C2248      H2253   1.083       .  S
C2249      C3055   1.507   1_545  S
C2249      C2250   1.423       .  A
C2250     Br2251   1.912   1_545  S
C2255      C2256   1.407       .  A
C2255      C2260   1.398       .  A
C2255      H2262   1.084       .  S
C2256      C2257   1.407       .  A
C2257      C2258   1.390       .  A
C2257     Br2264   1.913       .  S
C2258      C2259   1.403       .  A
C2258      H2263   1.083       .  S
C2259      C2260   1.410       .  A
C2260     Br2261   1.921       .  S
C2265      C2266   1.401       .  A
C2265      C2270   1.396       .  A
C2265      H2272   1.083       .  S
C2266      C2267   1.421       .  A
C2267      C2268   1.408       .  A
C2267     Br2274   1.920       .  S
C2268      C2269   1.401       .  A
C2268      H2273   1.083       .  S
C2269      C2270   1.417       .  A
C2270     Br2271   1.925       .  S
C2275      C2276   1.391       .  A
C2275      H2282   1.083       .  S
C2276      C2277   1.407       .  A
C2277      C2278   1.403       .  A
C2277     Br2284   1.918       .  S
C2279      C2280   1.419       .  A
C2280     Br2281   1.920       .  S
C2285      C3114   1.409   1_545  A
C2285      C2290   1.413       .  A
C2285      H2292   1.083       .  S
C2286      C3113   1.409       .  A
C2286      C2287   1.423       .  A
C2287      C2702   1.385       .  A
C2287     Br2294   1.931       .  S
C2288      C2701   1.385   1_546  A
C2288      C2289   1.391       .  A
C2288      H2293   1.080       .  S
C2290     Br2291   1.915       .  S
C2295      C2296   1.394       .  A
C2295      C2300   1.386   1_545  A
C2295      H2302   1.084       .  S
C2296      C2297   1.408       .  A
C2297      C3126   1.405       .  A
C2297     Br2304   1.917       .  S
C2298      C3125   1.405       .  A
C2298      C2299   1.405       .  A
C2298      H2303   1.083       .  S
C2299      C3128   1.415       .  A
C2300      C3127   1.415       .  A
C2300     Br2301   1.922       .  S
C2305      C2306   1.407       .  A
C2305      C2310   1.410       .  A
C2305      H2312   1.083       .  S
C2306      C2967   1.507   1_545  S
C2306      C2307   1.418       .  A
C2307      C2308   1.406       .  A
C2307     Br3142   1.908   1_545  S
C2308      C2309   1.403       .  A
C2308      H2313   1.083       .  S
C2309      C2310   1.417       .  A
C2310     Br2311   1.912       .  S
Br2314     C3135   1.908       .  S
C2315      C2316   1.410       .  A
C2315      C2320   1.400       .  A
C2315      H2322   1.082       .  S
C2316      C2317   1.416       .  A
C2317      C2318   1.409       .  A
C2317     Br2324   1.920       .  S
C2318      C2319   1.410       .  A
C2318      H2323   1.083       .  S
C2319      C2320   1.410       .  A
C2320     Br2321   1.919       .  S
C2325      C2326   1.408       .  A
C2325      C2330   1.396       .  A
C2325      H2332   1.083       .  S
C2326      C2327   1.414       .  A
C2327      C2328   1.404       .  A
C2327     Br2334   1.920       .  S
C2328      C2329   1.410       .  A
C2328      H2333   1.083       .  S
C2329      C2330   1.415       .  A
C2330     Br2331   1.925       .  S
C2335      C2336   1.406       .  A
C2335      C2340   1.402       .  A
C2335      H2342   1.083       .  S
C2336      C2337   1.417       .  A
C2337      C2338   1.379       .  A
C2338      C2339   1.395       .  A
C2338      H2343   1.085       .  S
C2339      C2340   1.410       .  A
C2340     Br2341   1.917       .  S
C2345      H2352   1.085       .  S
C2347     Br2354   1.913       .  S
C2348      C2349   1.410       .  A
C2348      H2353   1.083       .  S
C2349      C2350   1.416       .  A
C2350     Br2351   1.927       .  S
C2355      C2360   1.375       .  A
C2355      H2362   1.083       .  S
C2356      C2357   1.408       .  A
C2357     Br2364   1.917       .  S
C2358      C2359   1.405       .  A
C2359      C2360   1.406       .  A
C2360     Br2361   1.927       .  S
C2365      C3194   1.390       .  A
C2365      C2370   1.377   1_556  A
C2365      H2372   1.085       .  S
C2366      C3193   1.390       .  A
C2367      C2368   1.397       .  A
C2367     Br2374   1.912       .  S
C2368      C3197   1.405   1_545  A
C2368      H2373   1.083       .  S
C2369      C3196   1.405       .  A
C2370     Br2371   1.930   1_554  S
C2375      C2376   1.403       .  A
C2375      C3208   1.392       .  A
C2375      H2382   1.083       .  S
C2376      C3205   1.417       .  A
C2377      C3204   1.417       .  A
C2377      C2378   1.402   1_565  A
C2377     Br2384   1.923       .  S
C2378      C2379   1.405       .  A
C2378      H2383   1.083       .  S
C2379      C2380   1.411       .  A
C2380      C3203   1.392       .  A
C2380     Br2381   1.909       .  S
C2385      C2386   1.400       .  A
C2385      C2390   1.393       .  A
C2385      H2392   1.084       .  S
C2386      C2387   1.410       .  A
C2387      C2388   1.406       .  A
C2387     Br2394   1.918       .  S
C2388      C2389   1.410       .  A
C2388      H2393   1.083       .  S
C2389      C2390   1.410       .  A
C2390     Br2391   1.903       .  S
C2395      C2396   1.405       .  A
C2395      C2400   1.401       .  A
C2395      H2402   1.083       .  S
C2396      C2397   1.418       .  A
C2397      C2398   1.393       .  A
C2397     Br2404   1.926       .  S
C2398      C2399   1.400       .  A
C2398      H2403   1.083       .  S
C2399      C2400   1.413       .  A
C2400     Br2401   1.921       .  S
C2405      C2410   1.399       .  A
C2405      H2412   1.079       .  S
C2407      C2408   1.397       .  A
C2407     Br2414   1.919       .  S
C2408      H2413   1.084       .  S
C2410     Br2411   1.918       .  S
C2415      C2416   1.402       .  A
C2415      C2420   1.401       .  A
C2415      H2422   1.084       .  S
C2417      C2418   1.405       .  A
C2417     Br2424   1.921       .  S
C2418      C2419   1.400       .  A
C2418      H2423   1.079       .  S
C2420     Br2421   1.911       .  S
C2425      C2426   1.405       .  A
C2425      C2430   1.401       .  A
C2425      H2432   1.084       .  S
C2426      C2427   1.411       .  A
C2427      C2428   1.399       .  A
C2427     Br2434   1.921       .  S
C2428      C2429   1.411       .  A
C2428      H2433   1.083       .  S
C2429      C2937   1.499       .  S
C2429      C2430   1.417       .  A
C2430     Br3259   1.912       .  S
Br2431     C3258   1.912       .  S
C2435      C2436   1.401       .  A
C2435      C2440   1.395       .  A
C2435      H2442   1.084       .  S
C2436      C2437   1.405       .  A
C2437      C2438   1.391       .  A
C2437     Br2444   1.920       .  S
C2438      C2439   1.406       .  A
C2438      H2443   1.084       .  S
C2439      C2440   1.411       .  A
C2440     Br2441   1.920       .  S
C2445      C2446   1.405       .  A
C2445      C2450   1.402       .  A
C2445      H2452   1.078       .  S
C2446      C2447   1.411       .  A
C2447      C2448   1.407       .  A
C2448      C2449   1.410       .  A
C2448      H3281   1.081       .  S
C2449      C2995   1.505       .  S
C2449      C2450   1.414       .  A
C2450     Br2451   1.916       .  S
H2453      C3276   1.081       .  S
C2455      C2456   1.401       .  A
C2455      C2460   1.399       .  A
C2455      H2462   1.084       .  S
C2456      C2457   1.409       .  A
C2457      C2458   1.405       .  A
C2457     Br2464   1.917       .  S
C2458      C2459   1.409       .  A
C2458      H2463   1.084       .  S
C2459      C2460   1.416       .  A
C2460     Br2461   1.919       .  S
C2465      C2466   1.400       .  A
C2465      C2470   1.408   1_556  A
C2465      H2472   1.083       .  S
C2467      C2468   1.405       .  A
C2467     Br2474   1.916       .  S
C2468      C2469   1.395       .  A
C2468      H2473   1.083       .  S
C2470     Br2471   1.919       .  S
C2475      C2476   1.409       .  A
C2475      C2480   1.408       .  A
C2475      H2482   1.083       .  S
C2476      C2477   1.415       .  A
C2477      C2478   1.403       .  A
C2477     Br2484   1.918       .  S
C2478      C2479   1.403       .  A
C2478      H2483   1.084       .  S
C2479      C2480   1.410       .  A
C2480     Br2481   1.916       .  S
O2485      C2493   1.267       .  A
O2485     Co2505   1.893       .  S
O2486      C2494   1.256       .  A
O2486     Co2506   1.947       .  S
O2487      C2495   1.270       .  A
O2487     Co2507   2.058       .  S
O2488      C2496   1.280       .  A
O2488     Co2508   2.038       .  S
O2489      C2495   1.247       .  A
O2489     Co2506   1.950       .  S
O2490      C2496   1.269       .  A
O2490     Co2505   1.982       .  S
O2491      C2494   1.272       .  A
O2491     Co2508   2.031       .  S
O2492      C2493   1.298       .  A
O2492     Co2507   2.100       .  S
C2493      C2840   1.487       .  S
C2494      C2820   1.474       .  S
C2495      C2880   1.497       .  S
O2497      C2510   1.267       .  A
O2497     Co2505   2.032       .  S
O2498      C2511   1.280       .  A
O2498     Co2506   2.037       .  S
O2499      C2512   1.269       .  A
O2499     Co2507   1.906       .  S
O2500      C2513   1.257       .  A
O2500     Co2508   1.953       .  S
O2501      C2513   1.269       .  A
O2501     Co2506   2.011       .  S
O2502      C2512   1.299       .  A
O2502     Co2505   2.110       .  S
O2503      C2510   1.252       .  A
O2503     Co2508   1.971       .  S
O2504      C2511   1.268       .  A
O2504     Co2507   1.972       .  S
Co2505     O2509   2.010       .  S
Co2506     O2509   2.028       .  S
Co2507     O2509   2.033       .  S
Co2508     O2509   2.037       .  S
C2510      C2833   1.483       .  S
C2511      C2873   1.492       .  S
C2512      C2893   1.489       .  S
C2513      C2850   1.458       .  S
O2514      C2522   1.269       .  A
O2514     Co2534   1.895       .  S
O2515      C2523   1.264       .  A
O2515     Co2535   2.000       .  S
O2516      C2524   1.303       .  A
O2517      C2525   1.268       .  A
O2517     Co2537   2.024       .  S
O2518     Co2535   1.885       .  S
O2519      C2525   1.255       .  A
O2519     Co2534   1.973       .  S
O2520      C2523   1.269       .  A
O2520     Co2537   2.013       .  S
O2521      C2522   1.292       .  A
O2521     Co2536   2.037       .  S
C2522      C2770   1.459       .  S
C2524      C2800   1.480       .  S
C2525      C2793   1.484       .  S
O2526      C2539   1.274       .  A
O2526     Co2534   2.025       .  S
O2527      C2540   1.240       .  A
O2527     Co2535   1.971       .  S
O2528      C2541   1.253       .  A
O2528     Co2536   1.986       .  S
O2529      C2542   1.257       .  A
O2529     Co2537   1.970       .  S
O2530      C2542   1.265       .  A
O2530     Co2535   1.976       .  S
O2531      C2541   1.243       .  A
O2531     Co2534   1.942       .  S
O2532      C2539   1.256       .  A
O2532     Co2537   1.953       .  S
O2533      C2540   1.243       .  A
O2533     Co2536   1.970       .  S
Co2534     O2538   1.940       .  S
Co2535     O2538   1.905       .  S
Co2536     O2538   2.230       .  S
Co2537     O2538   2.073       .  S
C2539      C2810   1.482       .  S
C2540      C2760   1.455       .  S
C2541      C2853   1.468       .  S
C2542      C2780   1.447       .  S
O2543      C2551   1.250       .  A
O2543     Co2563   1.977       .  S
O2544      C2552   1.279       .  A
O2544     Co2564   2.044       .  S
O2545      C2553   1.255       .  A
O2545     Co2565   2.019       .  S
O2546      C2554   1.250       .  A
O2546     Co2566   1.939       .  S
O2547      C2553   1.250       .  A
O2547     Co2564   1.994       .  S
O2548      C2554   1.270       .  A
O2548     Co2563   2.029       .  S
O2549      C2552   1.254       .  A
O2549     Co2566   1.931       .  S
O2550      C2551   1.246       .  A
O2550     Co2565   1.952       .  S
C2552      C2700   1.488       .  S
C2554      C2823   1.473       .  S
O2555      C2568   1.258       .  A
O2555     Co2563   1.988       .  S
O2556      C2569   1.282       .  A
O2556     Co2564   1.936       .  S
O2557      C2570   1.298       .  A
O2557     Co2565   2.060       .  S
O2558      C2571   1.260       .  A
O2558     Co2566   1.993       .  S
O2559      C2571   1.256       .  A
O2559     Co2564   2.001       .  S
O2560      C2570   1.272       .  A
O2560     Co2563   1.913       .  S
O2561      C2568   1.269       .  A
O2561     Co2566   2.025       .  S
O2562      C2569   1.285       .  A
O2562     Co2565   2.021       .  S
Co2563     O2567   1.967       .  S
Co2564     O2567   1.973       .  S
Co2565     O2567   2.229       .  S
Co2566     O2567   2.067       .  S
C2568      C2733   1.494       .  S
C2569      C2713   1.471       .  S
C2570      C2830   1.487       .  S
C2571      C2740   1.492       .  S
O2572      C2580   1.278       .  A
O2572     Co2592   2.048       .  S
O2573      C2581   1.251       .  A
O2573     Co2593   1.988       .  S
O2574      C2582   1.258       .  A
O2574     Co2594   1.947       .  S
O2575      C2583   1.258       .  A
O2575     Co2595   2.009       .  S
O2576      C2582   1.272       .  A
O2576     Co2593   2.025       .  S
O2577      C2583   1.248       .  A
O2577     Co2592   1.968       .  S
O2578      C2581   1.255       .  A
O2578     Co2595   2.003       .  S
O2579      C2580   1.257       .  A
O2579     Co2594   1.952       .  S
C2580      C2683   1.484       .  S
C2582      C2710   1.459       .  S
C2583      C2803   1.490       .  S
O2584      C2597   1.279       .  A
O2584     Co2592   1.946       .  S
O2585      C2598   1.259       .  A
O2585     Co2593   1.980       .  S
O2586      C2599   1.266       .  A
O2586     Co2594   2.022       .  S
O2587      C2600   1.288       .  A
O2587     Co2595   2.055       .  S
O2588      C2600   1.275       .  A
O2588     Co2593   1.923       .  S
O2589      C2599   1.256       .  A
O2589     Co2592   1.995       .  S
O2590      C2597   1.278       .  A
O2590     Co2595   2.014       .  S
O2591      C2598   1.263       .  A
O2591     Co2594   2.004       .  S
Co2592     O2596   1.992       .  S
Co2593     O2596   1.964       .  S
Co2594     O2596   2.072       .  S
Co2595     O2596   2.222       .  S
C2597      C2693   1.475       .  S
C2598      C2813   1.478       .  S
C2599      C2870   1.482       .  S
C2600      C2703   1.471       .  S
O2601      C2609   1.270       .  A
O2601     Co2621   2.031       .  S
O2602      C2610   1.293       .  A
O2602     Co2622   2.033       .  S
O2603      C2611   1.270       .  A
O2603     Co2623   1.896       .  S
O2604      C2612   1.265       .  A
O2604     Co2624   2.010       .  S
O2605      C2611   1.293       .  A
O2605     Co2622   2.048       .  S
O2606      C2612   1.268       .  A
O2606     Co2621   2.020       .  S
O2607      C2610   1.277       .  A
O2607     Co2624   1.915       .  S
O2608      C2609   1.262       .  A
O2608     Co2623   2.009       .  S
C2610      C2690   1.457       .  S
C2611      C2763   1.472       .  S
C2612      C2723   1.502       .  S
O2613      C2626   1.264       .  A
O2613     Co2621   1.984       .  S
O2614      C2627   1.255       .  A
O2614     Co2622   1.998       .  S
O2615      C2628   1.257       .  A
O2615     Co2623   1.981       .  S
O2616      C2629   1.243       .  A
O2616     Co2624   1.968       .  S
O2617      C2629   1.250       .  A
O2617     Co2622   1.976       .  S
O2618      C2628   1.255       .  A
O2618     Co2621   1.963       .  S
O2619      C2626   1.275       .  A
O2619     Co2624   2.013       .  S
O2620      C2627   1.250       .  A
O2620     Co2623   1.990       .  S
Co2621     O2625   2.065       .  S
Co2622     O2625   2.241       .  S
Co2623     O2625   1.943       .  S
Co2624     O2625   1.935       .  S
C2626      C2680   1.492       .  S
C2627      C2730   1.500       .  S
C2628      C2773   1.452       .  S
C2629      C2673   1.472       .  S
O2630      C2638   1.263       .  A
O2630     Co2650   1.864       .  S
O2631      C2639   1.241       .  A
O2631     Co2651   1.913       .  S
O2632      C2640   1.268       .  A
O2632     Co2652   2.056       .  S
O2633      C2641   1.281       .  A
O2633     Co2653   2.045       .  S
O2634      C2640   1.243       .  A
O2634     Co2651   1.944       .  S
O2635      C2641   1.267       .  A
O2635     Co2650   1.986       .  S
O2636      C2639   1.269       .  A
O2636     Co2653   2.026       .  S
O2637      C2638   1.291       .  A
O2637     Co2652   2.091       .  S
C2638      C2753   1.462       .  S
C2639      C2783   1.466       .  S
C2640      C2883   1.488       .  S
O2642      C2655   1.263       .  A
O2642     Co2650   1.997       .  S
O2643      C2656   1.279       .  A
O2643     Co2651   2.024       .  S
O2644      C2657   1.272       .  A
O2644     Co2652   1.921       .  S
O2645      C2658   1.262       .  A
O2645     Co2653   1.966       .  S
O2646      C2658   1.272       .  A
O2646     Co2651   2.020       .  S
O2647      C2657   1.295       .  A
O2647     Co2650   2.093       .  S
O2648      C2655   1.254       .  A
O2648     Co2653   1.972       .  S
O2649      C2656   1.266       .  A
O2649     Co2652   1.955       .  S
Co2650     O2654   1.983       .  S
Co2651     O2654   1.992       .  S
Co2652     O2654   2.045       .  S
Co2653     O2654   2.058       .  S
C2655      C2790   1.485       .  S
C2656      C2670   1.472       .  S
C2657      C2890   1.496       .  S
C2658      C2743   1.492       .  S
C2659      C2660   1.399       .  A
C2659      C2664   1.408       .  A
C2660      C2661   1.412       .  A
C2661      C2662   1.405       .  A
C2661     Br2668   1.915       .  S
C2662      C2663   1.408       .  A
C2662      H2667   1.083       .  S
C2663      C2664   1.423       .  A
C2664     Br2665   1.912       .  S
C2669      C2670   1.407       .  A
C2669      C2674   1.398       .  A
C2669      H2676   1.084       .  S
C2670      C2671   1.407       .  A
C2671      C2672   1.390       .  A
C2671     Br2678   1.913       .  S
C2672      C2673   1.403       .  A
C2672      H2677   1.083       .  S
C2673      C2674   1.410       .  A
C2674     Br2675   1.921       .  S
C2679      C2680   1.401       .  A
C2679      C2684   1.396       .  A
C2679      H2686   1.083       .  S
C2680      C2681   1.421       .  A
C2681      C2682   1.408       .  A
C2681     Br2688   1.920       .  S
C2682      C2683   1.401       .  A
C2682      H2687   1.083       .  S
C2683      C2684   1.417       .  A
C2684     Br2685   1.925       .  S
C2689      C2690   1.391       .  A
C2689      C3108   1.388   1_554  A
C2689      H2696   1.083       .  S
C2690      C2691   1.407       .  A
C2691      C2692   1.403   1_554  A
C2691     Br2698   1.918       .  S
C2692      C3107   1.404       .  A
C2692      H3111   1.083       .  S
C2693      C3106   1.404       .  A
C2693      C2694   1.419       .  A
C2694      C3103   1.388       .  A
C2694     Br2695   1.920       .  S
H2697      C3106   1.083       .  S
C2699      C2704   1.413   1_554  A
C2699      H2706   1.083       .  S
C2700      C2701   1.423       .  A
C2701     Br2708   1.932       .  S
C2702      C2703   1.391       .  A
C2702      H2707   1.080       .  S
C2703      C3118   1.411       .  A
C2704      C3117   1.411       .  A
C2704     Br2705   1.915       .  S
C2709      C2710   1.394       .  A
C2709      C2714   1.386       .  A
C2709      H2716   1.084       .  S
C2710      C2711   1.408       .  A
C2711     Br2718   1.917       .  S
C2712      C2713   1.405   1_545  A
C2712      H2717   1.083       .  S
C2714     Br2715   1.922       .  S
C2719      C2720   1.407       .  A
C2719      C2724   1.410       .  A
C2719      H2726   1.083       .  S
C2720      C2721   1.418       .  A
C2721      C2722   1.406       .  A
C2722      C2723   1.403       .  A
C2722      H2727   1.083       .  S
C2723      C2724   1.417       .  A
C2724     Br2725   1.912       .  S
C2729      C2730   1.410       .  A
C2729      C2734   1.400       .  A
C2729      H2736   1.082       .  S
C2730      C2731   1.416       .  A
C2731      C2732   1.409       .  A
C2731     Br2738   1.920       .  S
C2732      C2733   1.410       .  A
C2732      H2737   1.083       .  S
C2733      C2734   1.410       .  A
C2734     Br2735   1.919       .  S
C2739      C2740   1.408       .  A
C2739      C2744   1.396       .  A
C2739      H2746   1.083       .  S
C2740      C2741   1.414       .  A
C2741      C2742   1.404       .  A
C2741     Br2748   1.920       .  S
C2742      C2743   1.410       .  A
C2742      H2747   1.083       .  S
C2743      C2744   1.415       .  A
C2744     Br2745   1.925       .  S
C2749      C2750   1.406       .  A
C2749      C2754   1.402       .  A
C2749      H2756   1.083       .  S
C2750      C2751   1.417       .  A
C2751      C2752   1.379       .  A
C2752      C2753   1.395       .  A
C2752      H2757   1.085       .  S
C2753      C2754   1.410       .  A
C2754     Br2755   1.917       .  S
C2759      C3178   1.386       .  A
C2759      H2766   1.085       .  S
C2760      C3175   1.400       .  A
C2761      C3174   1.400   1_554  A
C2761     Br2768   1.913       .  S
C2762      C2763   1.410       .  A
C2762      H2767   1.083       .  S
C2763      C2764   1.416       .  A
C2764      C3173   1.386   1_554  A
C2764     Br2765   1.927   1_554  S
C2769      C2774   1.375       .  A
C2769      H2776   1.083       .  S
C2770      C2771   1.408       .  A
C2771     Br2778   1.917       .  S
C2772      C2773   1.405       .  A
C2773      C2774   1.406       .  A
C2774     Br2775   1.927       .  S
C2779      C2784   1.377   1_545  A
C2779      H2786   1.085       .  S
C2780      C3195   1.404       .  A
C2781      C3194   1.404   1_554  A
C2781      C2782   1.397       .  A
C2781     Br2788   1.912       .  S
C2782      H2787   1.083       .  S
C2783      C3198   1.423       .  A
C2784      C3197   1.423       .  A
C2784     Br2785   1.930       .  S
C2789      C2790   1.403   1_545  A
C2789      H2796   1.083       .  S
C2791      C2792   1.402       .  A
C2791     Br2798   1.923       .  S
C2792      C2793   1.405       .  A
C2792      H2797   1.083       .  S
C2793      C2794   1.411       .  A
C2794     Br2795   1.909       .  S
C2799      C2800   1.400       .  A
C2799      C2804   1.393       .  A
C2799      H2806   1.084       .  S
C2800      C2801   1.410       .  A
C2801      C2802   1.406       .  A
C2801     Br2808   1.918       .  S
C2802      C2803   1.410       .  A
C2802      H2807   1.083       .  S
C2803      C2804   1.410       .  A
C2804     Br2805   1.903       .  S
C2809      C2810   1.405       .  A
C2809      C2814   1.401       .  A
C2809      H2816   1.083       .  S
C2810      C2811   1.418       .  A
C2811      C2812   1.393       .  A
C2811     Br2818   1.926       .  S
C2812      C2813   1.400       .  A
C2812      H2817   1.083       .  S
C2813      C2814   1.413       .  A
C2814     Br2815   1.921       .  S
C2819      C3234   1.409       .  A
C2819      C2824   1.399   1_556  A
C2819      H2826   1.079   1_556  S
C2820      C3233   1.409       .  A
C2821      C2822   1.397       .  A
C2821     Br2828   1.919       .  S
C2822      C3237   1.411       .  A
C2822      H2827   1.084       .  S
C2823      C3236   1.411   1_554  A
C2824     Br2825   1.918       .  S
C2829      C2830   1.402       .  A
C2829      C2834   1.401       .  A
C2829      H2836   1.084       .  S
C2831      C2832   1.405       .  A
C2831     Br2838   1.921       .  S
C2832      C2833   1.400       .  A
C2832      H2837   1.079       .  S
C2834     Br2835   1.911       .  S
C2839      C2840   1.405       .  A
C2839      C2844   1.401   1_565  A
C2839      H2846   1.084       .  S
C2840      C2841   1.411       .  A
C2841      C2842   1.399       .  A
C2841     Br2848   1.921       .  S
C2842      C2843   1.411   1_565  A
C2842      H2847   1.083       .  S
C2843      C2844   1.417       .  A
C2849      C2850   1.401       .  A
C2849      C2854   1.395       .  A
C2849      H2856   1.084       .  S
C2850      C2851   1.405       .  A
C2851      C2852   1.391       .  A
C2851     Br2858   1.920       .  S
C2852      C2853   1.406       .  A
C2852      H2857   1.084       .  S
C2853      C2854   1.411       .  A
C2854     Br2855   1.920       .  S
C2859      C2860   1.405       .  A
C2859      C2864   1.402       .  A
C2859      H2866   1.078       .  S
C2860      C2861   1.411       .  A
C2861      C2862   1.407       .  A
C2862      C2863   1.410       .  A
C2863      C2864   1.414       .  A
C2864     Br2865   1.916       .  S
C2869      C2870   1.401       .  A
C2869      C2874   1.399       .  A
C2869      H2876   1.084       .  S
C2870      C2871   1.409       .  A
C2871      C2872   1.405       .  A
C2871     Br2878   1.917       .  S
C2872      C2873   1.409       .  A
C2872      H2877   1.084       .  S
C2873      C2874   1.416       .  A
C2874     Br2875   1.919       .  S
C2879      C2880   1.400       .  A
C2879      C2884   1.408       .  A
C2879      H2886   1.083       .  S
C2880      C3295   1.422       .  A
C2881      C3294   1.422   1_554  A
C2881      C2882   1.405       .  A
C2881     Br2888   1.916   1_554  S
C2882      C2883   1.395       .  A
C2882      H2887   1.083       .  S
C2883      C3298   1.419       .  A
C2884      C3297   1.419       .  A
C2884     Br2885   1.919       .  S
C2889      C2890   1.409       .  A
C2889      C2894   1.408       .  A
C2889      H2896   1.083       .  S
C2890      C2891   1.415       .  A
C2891      C2892   1.403       .  A
C2891     Br2898   1.918       .  S
C2892      C2893   1.403       .  A
C2892      H2897   1.084       .  S
C2893      C2894   1.410       .  A
C2894     Br2895   1.916       .  S
O2899      C2907   1.267       .  A
O2899     Co2919   1.893       .  S
O2900      C2908   1.256       .  A
O2900     Co2920   1.947       .  S
O2901      C2909   1.270       .  A
O2901     Co2921   2.058       .  S
O2902      C2910   1.280       .  A
O2902     Co2922   2.038       .  S
O2903      C2909   1.247       .  A
O2903     Co2920   1.950       .  S
O2904      C2910   1.269       .  A
O2904     Co2919   1.982       .  S
O2905      C2908   1.272       .  A
O2905     Co2922   2.031       .  S
O2906      C2907   1.298       .  A
O2906     Co2921   2.100       .  S
C2907      C3254   1.487       .  S
C2908      C3234   1.474       .  S
C2909      C3294   1.497       .  S
O2911      C2924   1.267       .  A
O2911     Co2919   2.032       .  S
O2912      C2925   1.280       .  A
O2912     Co2920   2.037       .  S
O2913      C2926   1.269       .  A
O2913     Co2921   1.906       .  S
O2914      C2927   1.257       .  A
O2914     Co2922   1.953       .  S
O2915      C2927   1.269       .  A
O2915     Co2920   2.011       .  S
O2916      C2926   1.299       .  A
O2916     Co2919   2.110       .  S
O2917      C2924   1.252       .  A
O2917     Co2922   1.971       .  S
O2918      C2925   1.268       .  A
O2918     Co2921   1.972       .  S
Co2919     O2923   2.010       .  S
Co2920     O2923   2.028       .  S
Co2921     O2923   2.033       .  S
Co2922     O2923   2.037       .  S
C2924      C3247   1.483       .  S
C2925      C3287   1.492       .  S
C2926      C3307   1.489       .  S
C2927      C3264   1.458       .  S
O2928      C2936   1.269       .  A
O2928     Co2948   1.895       .  S
O2929      C2937   1.264       .  A
O2929     Co2949   2.000       .  S
O2930      C2938   1.303       .  A
O2931      C2939   1.268       .  A
O2931     Co2951   2.024       .  S
O2932     Co2949   1.885       .  S
O2933      C2939   1.255       .  A
O2933     Co2948   1.973       .  S
O2934      C2937   1.269       .  A
O2934     Co2951   2.013       .  S
O2935      C2936   1.292       .  A
O2935     Co2950   2.037       .  S
C2936      C3184   1.459       .  S
C2938      C3214   1.480       .  S
C2939      C3207   1.484       .  S
O2940      C2953   1.274       .  A
O2940     Co2948   2.025       .  S
O2941      C2954   1.240       .  A
O2941     Co2949   1.971       .  S
O2942      C2955   1.253       .  A
O2942     Co2950   1.986       .  S
O2943      C2956   1.257       .  A
O2943     Co2951   1.970       .  S
O2944      C2956   1.265       .  A
O2944     Co2949   1.976       .  S
O2945      C2955   1.243       .  A
O2945     Co2948   1.942       .  S
O2946      C2953   1.256       .  A
O2946     Co2951   1.953       .  S
O2947      C2954   1.243       .  A
O2947     Co2950   1.970       .  S
Co2948     O2952   1.940       .  S
Co2949     O2952   1.905       .  S
Co2950     O2952   2.230       .  S
Co2951     O2952   2.073       .  S
C2953      C3224   1.482       .  S
C2954      C3174   1.455       .  S
C2955      C3267   1.468       .  S
C2956      C3194   1.447       .  S
O2957      C2965   1.250       .  A
O2957     Co2977   1.977       .  S
O2958      C2966   1.279       .  A
O2958     Co2978   2.044       .  S
O2959      C2967   1.255       .  A
O2959     Co2979   2.019       .  S
O2960      C2968   1.250       .  A
O2960     Co2980   1.939       .  S
O2961      C2967   1.250       .  A
O2961     Co2978   1.994       .  S
O2962      C2968   1.270       .  A
O2962     Co2977   2.029       .  S
O2963      C2966   1.254       .  A
O2963     Co2980   1.931       .  S
O2964      C2965   1.246       .  A
O2964     Co2979   1.952       .  S
C2966      C3114   1.488       .  S
C2968      C3237   1.473       .  S
O2969      C2982   1.258       .  A
O2969     Co2977   1.988       .  S
O2970      C2983   1.282       .  A
O2970     Co2978   1.936       .  S
O2971      C2984   1.297       .  A
O2971     Co2979   2.060       .  S
O2972      C2985   1.260       .  A
O2972     Co2980   1.993       .  S
O2973      C2985   1.256       .  A
O2973     Co2978   2.001       .  S
O2974      C2984   1.272       .  A
O2974     Co2977   1.913       .  S
O2975      C2982   1.269       .  A
O2975     Co2980   2.025       .  S
O2976      C2983   1.285       .  A
O2976     Co2979   2.021       .  S
Co2977     O2981   1.967       .  S
Co2978     O2981   1.973       .  S
Co2979     O2981   2.229       .  S
Co2980     O2981   2.067       .  S
C2982      C3147   1.494       .  S
C2983      C3127   1.471       .  S
C2984      C3244   1.487       .  S
C2985      C3154   1.492       .  S
O2986      C2994   1.278       .  A
O2986     Co3006   2.048       .  S
O2987      C2995   1.251       .  A
O2987     Co3007   1.988       .  S
O2988      C2996   1.258       .  A
O2988     Co3008   1.947       .  S
O2989      C2997   1.258       .  A
O2989     Co3009   2.009       .  S
O2990      C2996   1.272       .  A
O2990     Co3007   2.025       .  S
O2991      C2997   1.248       .  A
O2991     Co3006   1.968       .  S
O2992      C2995   1.255       .  A
O2992     Co3009   2.003       .  S
O2993      C2994   1.257       .  A
O2993     Co3008   1.952       .  S
C2994      C3097   1.484       .  S
C2996      C3124   1.459       .  S
C2997      C3217   1.490       .  S
O2998      C3011   1.279       .  A
O2998     Co3006   1.946       .  S
O2999      C3012   1.259       .  A
O2999     Co3007   1.980       .  S
O3000      C3013   1.266       .  A
O3000     Co3008   2.022       .  S
O3001      C3014   1.288       .  A
O3001     Co3009   2.055       .  S
O3002      C3014   1.275       .  A
O3002     Co3007   1.923       .  S
O3003      C3013   1.256       .  A
O3003     Co3006   1.995       .  S
O3004      C3011   1.278       .  A
O3004     Co3009   2.014       .  S
O3005      C3012   1.263       .  A
O3005     Co3008   2.004       .  S
Co3006     O3010   1.992       .  S
Co3007     O3010   1.964       .  S
Co3008     O3010   2.072       .  S
Co3009     O3010   2.222       .  S
C3011      C3107   1.475       .  S
C3012      C3227   1.478       .  S
C3013      C3284   1.482       .  S
C3014      C3117   1.471       .  S
O3015      C3023   1.270       .  A
O3015     Co3035   2.031       .  S
O3016      C3024   1.293       .  A
O3016     Co3036   2.033       .  S
O3017      C3025   1.270       .  A
O3017     Co3037   1.896       .  S
O3018      C3026   1.265       .  A
O3018     Co3038   2.010       .  S
O3019      C3025   1.293       .  A
O3019     Co3036   2.048       .  S
O3020      C3026   1.268       .  A
O3020     Co3035   2.020       .  S
O3021      C3024   1.277       .  A
O3021     Co3038   1.915       .  S
O3022      C3023   1.262       .  A
O3022     Co3037   2.009       .  S
C3024      C3104   1.457       .  S
C3025      C3177   1.472       .  S
C3026      C3137   1.502       .  S
O3027      C3040   1.264       .  A
O3027     Co3035   1.984       .  S
O3028      C3041   1.255       .  A
O3028     Co3036   1.998       .  S
O3029      C3042   1.257       .  A
O3029     Co3037   1.981       .  S
O3030      C3043   1.243       .  A
O3030     Co3038   1.968       .  S
O3031      C3043   1.250       .  A
O3031     Co3036   1.976       .  S
O3032      C3042   1.255       .  A
O3032     Co3035   1.963       .  S
O3033      C3040   1.275       .  A
O3033     Co3038   2.013       .  S
O3034      C3041   1.250       .  A
O3034     Co3037   1.990       .  S
Co3035     O3039   2.065       .  S
Co3036     O3039   2.241       .  S
Co3037     O3039   1.943       .  S
Co3038     O3039   1.935       .  S
C3040      C3094   1.492       .  S
C3041      C3144   1.500       .  S
C3042      C3187   1.452       .  S
C3043      C3087   1.472       .  S
O3044      C3052   1.263       .  A
O3044     Co3064   1.864       .  S
O3045      C3053   1.241       .  A
O3045     Co3065   1.913       .  S
O3046      C3054   1.268       .  A
O3046     Co3066   2.056       .  S
O3047      C3055   1.281       .  A
O3047     Co3067   2.045       .  S
O3048      C3054   1.243       .  A
O3048     Co3065   1.944       .  S
O3049      C3055   1.267       .  A
O3049     Co3064   1.986       .  S
O3050      C3053   1.269       .  A
O3050     Co3067   2.026       .  S
O3051      C3052   1.291       .  A
O3051     Co3066   2.091       .  S
C3052      C3167   1.462       .  S
C3053      C3197   1.466       .  S
C3054      C3297   1.488       .  S
O3056      C3069   1.263       .  A
O3056     Co3064   1.997       .  S
O3057      C3070   1.279       .  A
O3057     Co3065   2.024       .  S
O3058      C3071   1.272       .  A
O3058     Co3066   1.921       .  S
O3059      C3072   1.262       .  A
O3059     Co3067   1.966       .  S
O3060      C3072   1.272       .  A
O3060     Co3065   2.020       .  S
O3061      C3071   1.295       .  A
O3061     Co3064   2.093       .  S
O3062      C3069   1.254       .  A
O3062     Co3067   1.972       .  S
O3063      C3070   1.266       .  A
O3063     Co3066   1.955       .  S
Co3064     O3068   1.983       .  S
Co3065     O3068   1.992       .  S
Co3066     O3068   2.045       .  S
Co3067     O3068   2.058       .  S
C3069      C3204   1.485       .  S
C3070      C3084   1.472       .  S
C3071      C3304   1.496       .  S
C3072      C3157   1.492       .  S
C3073      C3074   1.399       .  A
C3073      C3078   1.408       .  A
C3074      C3075   1.412       .  A
C3075      C3076   1.405       .  A
C3075     Br3082   1.915       .  S
C3076      C3077   1.408       .  A
C3076      H3081   1.083       .  S
C3077      C3078   1.423       .  A
C3078     Br3079   1.912       .  S
C3083      C3084   1.407       .  A
C3083      C3088   1.398       .  A
C3083      H3090   1.084       .  S
C3084      C3085   1.407       .  A
C3085      C3086   1.390       .  A
C3085     Br3092   1.913       .  S
C3086      C3087   1.403       .  A
C3086      H3091   1.083       .  S
C3087      C3088   1.410       .  A
C3088     Br3089   1.921       .  S
C3093      C3094   1.401       .  A
C3093      C3098   1.396       .  A
C3093      H3100   1.083       .  S
C3094      C3095   1.421       .  A
C3095      C3096   1.408       .  A
C3095     Br3102   1.920       .  S
C3096      C3097   1.401       .  A
C3096      H3101   1.083       .  S
C3097      C3098   1.417       .  A
C3098     Br3099   1.925       .  S
C3103      C3104   1.391       .  A
C3103      H3110   1.083       .  S
C3104      C3105   1.407       .  A
C3105      C3106   1.403       .  A
C3105     Br3112   1.918       .  S
C3107      C3108   1.419       .  A
C3108     Br3109   1.920       .  S
C3113      C3118   1.413       .  A
C3113      H3120   1.083       .  S
C3114      C3115   1.423       .  A
C3115     Br3122   1.932       .  S
C3116      C3117   1.391       .  A
C3116      H3121   1.080       .  S
C3118     Br3119   1.915       .  S
C3123      C3124   1.394       .  A
C3123      C3128   1.386       .  A
C3123      H3130   1.084       .  S
C3124      C3125   1.408       .  A
C3125     Br3132   1.917       .  S
C3126      C3127   1.405   1_545  A
C3126      H3131   1.083       .  S
C3128     Br3129   1.922       .  S
C3133      C3134   1.407       .  A
C3133      C3138   1.410       .  A
C3133      H3140   1.083       .  S
C3134      C3135   1.418       .  A
C3135      C3136   1.406       .  A
C3136      C3137   1.403       .  A
C3136      H3141   1.083       .  S
C3137      C3138   1.417       .  A
C3138     Br3139   1.912       .  S
C3143      C3144   1.410       .  A
C3143      C3148   1.400       .  A
C3143      H3150   1.082       .  S
C3144      C3145   1.416       .  A
C3145      C3146   1.409       .  A
C3145     Br3152   1.920       .  S
C3146      C3147   1.410       .  A
C3146      H3151   1.083       .  S
C3147      C3148   1.410       .  A
C3148     Br3149   1.919       .  S
C3153      C3154   1.408       .  A
C3153      C3158   1.396       .  A
C3153      H3160   1.083       .  S
C3154      C3155   1.414       .  A
C3155      C3156   1.404       .  A
C3155     Br3162   1.920       .  S
C3156      C3157   1.410       .  A
C3156      H3161   1.083       .  S
C3157      C3158   1.415       .  A
C3158     Br3159   1.925       .  S
C3163      C3164   1.406       .  A
C3163      C3168   1.402       .  A
C3163      H3170   1.083       .  S
C3164      C3165   1.417       .  A
C3165      C3166   1.379       .  A
C3166      C3167   1.395       .  A
C3166      H3171   1.085       .  S
C3167      C3168   1.410       .  A
C3168     Br3169   1.917       .  S
C3173      H3180   1.085       .  S
C3175     Br3182   1.913       .  S
C3176      C3177   1.410       .  A
C3176      H3181   1.083       .  S
C3177      C3178   1.416       .  A
C3178     Br3179   1.927       .  S
C3183      C3188   1.375       .  A
C3183      H3190   1.083       .  S
C3184      C3185   1.408       .  A
C3185     Br3192   1.917       .  S
C3186      C3187   1.405       .  A
C3187      C3188   1.406       .  A
C3188     Br3189   1.927       .  S
C3193      C3198   1.377   1_546  A
C3193      H3200   1.085       .  S
C3195      C3196   1.397       .  A
C3195     Br3202   1.912       .  S
C3196      H3201   1.083       .  S
C3198     Br3199   1.930   1_554  S
C3203      C3204   1.403   1_545  A
C3203      H3210   1.083       .  S
C3205      C3206   1.402       .  A
C3205     Br3212   1.923       .  S
C3206      C3207   1.405       .  A
C3206      H3211   1.083       .  S
C3207      C3208   1.411       .  A
C3208     Br3209   1.909       .  S
C3213      C3214   1.400       .  A
C3213      C3218   1.393       .  A
C3213      H3220   1.084       .  S
C3214      C3215   1.410       .  A
C3215      C3216   1.406       .  A
C3215     Br3222   1.918       .  S
C3216      C3217   1.410       .  A
C3216      H3221   1.083       .  S
C3217      C3218   1.410       .  A
C3218     Br3219   1.903       .  S
C3223      C3224   1.405       .  A
C3223      C3228   1.401       .  A
C3223      H3230   1.083       .  S
C3224      C3225   1.418       .  A
C3225      C3226   1.393       .  A
C3225     Br3232   1.926       .  S
C3226      C3227   1.400       .  A
C3226      H3231   1.083       .  S
C3227      C3228   1.413       .  A
C3228     Br3229   1.921       .  S
C3233      C3238   1.399       .  A
C3233      H3240   1.079       .  S
C3235      C3236   1.397       .  A
C3235     Br3242   1.919       .  S
C3236      H3241   1.084       .  S
C3238     Br3239   1.918       .  S
C3243      C3244   1.402       .  A
C3243      C3248   1.401       .  A
C3243      H3250   1.084       .  S
C3245      C3246   1.405       .  A
C3245     Br3252   1.921       .  S
C3246      C3247   1.400       .  A
C3246      H3251   1.079       .  S
C3248     Br3249   1.911       .  S
C3253      C3254   1.405       .  A
C3253      C3258   1.401   1_565  A
C3253      H3260   1.084       .  S
C3254      C3255   1.411       .  A
C3255      C3256   1.399       .  A
C3255     Br3262   1.921       .  S
C3256      C3257   1.411   1_565  A
C3256      H3261   1.083       .  S
C3257      C3258   1.417       .  A
C3263      C3264   1.401       .  A
C3263      C3268   1.395       .  A
C3263      H3270   1.084       .  S
C3264      C3265   1.405       .  A
C3265      C3266   1.391       .  A
C3265     Br3272   1.920       .  S
C3266      C3267   1.406       .  A
C3266      H3271   1.084       .  S
C3267      C3268   1.411       .  A
C3268     Br3269   1.920       .  S
C3273      C3274   1.405       .  A
C3273      C3278   1.402       .  A
C3273      H3280   1.078       .  S
C3274      C3275   1.411       .  A
C3275      C3276   1.407       .  A
C3276      C3277   1.410       .  A
C3277      C3278   1.414       .  A
C3278     Br3279   1.916       .  S
C3283      C3284   1.401       .  A
C3283      C3288   1.399       .  A
C3283      H3290   1.084       .  S
C3284      C3285   1.409       .  A
C3285      C3286   1.405       .  A
C3285     Br3292   1.917       .  S
C3286      C3287   1.409       .  A
C3286      H3291   1.084       .  S
C3287      C3288   1.416       .  A
C3288     Br3289   1.919       .  S
C3293      C3294   1.400       .  A
C3293      C3298   1.408   1_556  A
C3293      H3300   1.083       .  S
C3295      C3296   1.405       .  A
C3295     Br3302   1.916       .  S
C3296      C3297   1.395       .  A
C3296      H3301   1.083       .  S
C3298     Br3299   1.919       .  S
C3303      C3304   1.409       .  A
C3303      C3308   1.408       .  A
C3303      H3310   1.083       .  S
C3304      C3305   1.415       .  A
C3305      C3306   1.403       .  A
C3305     Br3312   1.918       .  S
C3306      C3307   1.403       .  A
C3306      H3311   1.084       .  S
C3307      C3308   1.410       .  A
C3308     Br3309   1.916       .  S
