geometry optimzed in LAMMPS
_audit_creation_date              2020-11-30 
_audit_creation_method            'lammps2cif' 
_symmetry_space_group_name_H-M    'P1' 
_symmetry_Int_Tables_number       1 
_symmetry_cell_setting            triclinic 
loop_ 
_symmetry_equiv_pos_as_xyz 
  x,y,z 
_cell_length_a                    28.024253862586864 
_cell_length_b                    28.327044241629 
_cell_length_c                    32.08189075049543 
_cell_angle_alpha                 90.43619393455214 
_cell_angle_beta                  91.44284242383105 
_cell_angle_gamma                 90.33907073069771 
loop_ 
_atom_site_label 
_atom_site_type_symbol 
_atom_site_fract_x 
_atom_site_fract_y 
_atom_site_fract_z 
_atom_site_charge 
C1          C  0.25076932  0.82341405  0.32655491     0.42480
N2          N  0.28873027  0.75820901  0.32042913     0.01370
C3          C  0.21609037  0.52939660  0.35666657    -0.06510
H4          H  0.15342571  0.64893709  0.46192593     0.06860
C5          C  0.34462088  0.66789351  0.49820574    -0.06860
Co6        Co  0.22601933  0.67065359  0.31943149     0.74180
N7          N  0.19451758  0.65784953  0.40642413    -0.26040
Co8        Co  0.25121859  0.61034813  0.41067600     0.74070
C9          C  0.30265092  0.66074556  0.52407583     0.42580
N10         N  0.38851147  0.71444225  0.40236395     0.00990
N11         N  0.28400093  0.64515740  0.46022145     0.01090
N12         N  0.20270675  0.56311675  0.29374591    -0.46880
H13         H  0.17805354  0.78435105  0.32651002     0.06850
N14         N  0.18514871  0.67961855  0.37106020     0.01380
N15         N  0.30643850  0.56128477  0.41469988     0.01120
C16         C  0.34915809  0.50388972  0.43799830     0.42720
N17         N  0.38027206  0.73953703  0.36864330    -0.25490
C18         C  0.25078008  0.64949737  0.22867300    -0.06410
N19         N  0.29443019  0.80450019  0.32303635    -0.46600
N20         N  0.30394011  0.51964392  0.43307564    -0.46820
C21         C  0.29132071  0.65880459  0.20248526     0.42490
N22         N  0.21407826  0.59559904  0.32295267     0.01360
N23         N  0.39524712  0.65878118  0.31575410    -0.25510
N24         N  0.24346325  0.74445511  0.32085939    -0.26010
N25         N  0.40551448  0.63204168  0.34826311     0.01000
H26         H  0.41801657  0.65925329  0.25215201     0.06890
H27         H  0.41834779  0.54351432  0.42454433     0.06930
N28         N  0.22269615  0.57570085  0.35947872    -0.26060
N29         N  0.32990309  0.65616963  0.45923815    -0.25670
N30         N  0.30966216  0.67914843  0.26523839     0.01370
C31         C  0.12416992  0.69415994  0.40755802     0.42770
C32         C  0.40821618  0.77825095  0.37097648    -0.06920
N33         N  0.35083776  0.57434784  0.40879898    -0.25670
H34         H  0.38113338  0.67559366  0.50778588     0.06910
N35         N  0.14359673  0.70138125  0.37032593    -0.46890
H36         H  0.41390898  0.80236150  0.34559794     0.06900
C37         C  0.44785566  0.60542089  0.29854115     0.42600
C38         C  0.21652502  0.78365962  0.32470990    -0.06420
Co39       Co  0.34367078  0.70981908  0.31719536     0.73820
N40         N  0.42123821  0.73366931  0.42760861    -0.46610
C41         C  0.20356849  0.52038813  0.31342003     0.42870
N42         N  0.32652752  0.67729648  0.22707750    -0.46600
Co43       Co  0.36937887  0.64414437  0.40470431     0.73890
C44         C  0.38007548  0.53966622  0.42039976    -0.06920
C45         C  0.15800963  0.66546184  0.43200089    -0.06490
N46         N  0.26551836  0.66335256  0.26679722    -0.26010
N47         N  0.26678342  0.64690942  0.49807538    -0.46780
H48         H  0.22251084  0.50466480  0.38166415     0.06870
C49         C  0.42029806  0.64480057  0.28321486    -0.06900
Cl50       Cl  0.29743179  0.65907725  0.36320172    -0.49900
C51         C  0.43557571  0.77444302  0.41047772     0.42630
H52         H  0.21511987  0.63759452  0.22006130     0.06840
N53         N  0.43672363  0.59852266  0.33901669    -0.46610
C54         C  0.29463247  0.65843009  0.02322261     0.42480
N55         N  0.27483643  0.63766915  0.96086767     0.01370
C56         C  0.41659916  0.65375736  0.78763729    -0.06510
H57         H  0.39892886  0.80185005  0.85135799     0.06860
C58         C  0.20271665  0.77693016  0.82576883    -0.06860
Co59       Co  0.36027633  0.64005292  0.90556606     0.74180
N60         N  0.36723049  0.73781833  0.87365589    -0.26040
Co61       Co  0.33294735  0.70894804  0.82133067     0.74070
C62         C  0.23488181  0.81777037  0.83174274     0.42580
N63         N  0.17458123  0.67236891  0.87146493     0.00990
N64         N  0.27605213  0.75464924  0.82505983     0.01090
N65         N  0.43385254  0.60375157  0.84057853    -0.46880
H66         H  0.37206229  0.67419918  0.00520589     0.06850
N67         N  0.37751121  0.71105883  0.90593122     0.01380
N68         N  0.30214400  0.67846661  0.76819518     0.01120
C69         C  0.29146874  0.65601039  0.70453189     0.42720
N70         N  0.18419737  0.65029281  0.90667412    -0.25490
C71         C  0.37162511  0.53248936  0.91244587    -0.06410
N72         N  0.25811248  0.64179755  0.99894906    -0.46600
N73         N  0.32261858  0.67676382  0.73158677    -0.46820
C74         C  0.34021280  0.49309386  0.92227015     0.42490
N75         N  0.39820560  0.63252460  0.84988540     0.01360
N76         N  0.21409193  0.56945273  0.85796434    -0.25510
N77         N  0.32047344  0.64950508  0.95910774    -0.26010
N78         N  0.20554998  0.59027894  0.82180016     0.01000
H79         H  0.21311165  0.49737766  0.87832264     0.06890
H80         H  0.21459915  0.63072043  0.71755693     0.06930
N81         N  0.38752424  0.66127743  0.81897927    -0.26060
N82         N  0.23145736  0.73911379  0.82260047    -0.25670
N83         N  0.29826566  0.55534579  0.91170053     0.01370
C84         C  0.42457301  0.77088401  0.91401385     0.42770
C85         C  0.14805131  0.65835761  0.93268602    -0.06920
N86         N  0.25880527  0.66028349  0.76728380    -0.25670
H87         H  0.16419099  0.77598390  0.82528214     0.06910
N88         N  0.41136367  0.72941360  0.93049215    -0.46890
H89         H  0.14430099  0.64226190  0.96287839     0.06900
C90         C  0.19367978  0.51568351  0.81088999     0.42600
C91         C  0.33582531  0.66389057  0.99688225    -0.06420
Co92       Co  0.24199693  0.60338486  0.91018462     0.73820
N93         N  0.13358752  0.69519798  0.87166844    -0.46610
C94         C  0.44703921  0.61551285  0.80145632     0.42870
N95         N  0.29533556  0.51025770  0.92206211    -0.46600
Co96       Co  0.21650430  0.66527309  0.81951921     0.73890
C97         C  0.24864360  0.64502859  0.72827348    -0.06920
C98         C  0.39450875  0.77687055  0.87632224    -0.06490
N99         N  0.34267826  0.56933387  0.90698984    -0.26010
N100        N  0.27955684  0.80096947  0.82959540    -0.46780
H101        H  0.41594680  0.67267291  0.75852990     0.06870
C102        C  0.20711610  0.52314769  0.85409323    -0.06900
Cl103      Cl  0.28769245  0.65446490  0.86426617    -0.49900
C104        C  0.11433271  0.68862637  0.90920822     0.42630
H105        H  0.41016222  0.53451869  0.91493669     0.06840
N106        N  0.19318094  0.55881149  0.79208713    -0.46610
C107        C  0.92122512  0.74116373  0.95162243     0.42480
N108        N  0.86813878  0.77112192  0.99040118     0.01370
C109        C  0.64326272  0.85735314  0.94612778    -0.06510
H110        H  0.76737655  0.92662321  0.85105912     0.06860
C111        C  0.85815756  0.98965006  0.97950628    -0.06860
Co112      Co  0.77294257  0.78491251  0.94746455     0.74180
N113        N  0.77287694  0.87257764  0.89769675    -0.26040
Co114      Co  0.74287597  0.90283157  0.94958621     0.74070
C115        C  0.84869297  0.00348104  0.93624610     0.42580
N116        N  0.87915721  0.89578982  0.04552364     0.00990
N117        N  0.79705956  0.95215462  0.95323667     0.01090
N118        N  0.66155006  0.77959687  0.94162092    -0.46880
H119        H  0.86955986  0.73975527  0.89426778     0.06850
N120        N  0.78561013  0.82794015  0.89652818     0.01380
N121        N  0.71312382  0.93379700  0.00112195     0.01120
C122        C  0.67347120  0.98420083  0.03635296     0.42720
N123        N  0.88880453  0.85056982  0.04885732    -0.25490
C124        C  0.73656475  0.70144258  0.99824411    -0.06410
N125        N  0.91279724  0.75656733  0.99041979    -0.46600
N126        N  0.67421682  0.95991978  0.00006022    -0.46820
C127        C  0.74861567  0.68032549  0.03841930     0.42490
N128        N  0.70067953  0.80628007  0.94469685     0.01360
N129        N  0.80216190  0.83099404  0.09219209    -0.25510
N130        N  0.84587125  0.76642938  0.95370831    -0.26010
N131        N  0.79313051  0.87668951  0.09234270     0.01000
H132        H  0.80179243  0.77821399  0.14007815     0.06890
H133        H  0.73112337  0.98623517  0.08840063     0.06930
N134        N  0.69049223  0.85168616  0.94695042    -0.26060
N135        N  0.82385919  0.95775232  0.98734975    -0.25670
N136        N  0.78284436  0.74807263  0.03455882     0.01370
C137        C  0.79470187  0.85271501  0.83413456     0.42770
C138        C  0.93353073  0.84610673  0.06424390    -0.06920
N139        N  0.73885565  0.94029680  0.03554958    -0.25670
H140        H  0.88625063  0.00113253  0.00102990     0.06910
N141        N  0.79817440  0.81425726  0.85876455    -0.46890
H142        H  0.94944459  0.81337860  0.07448154     0.06900
C143        C  0.77845852  0.85425595  0.15470125     0.42600
C144        C  0.87708869  0.74817083  0.92670672    -0.06420
Co145      Co  0.83541647  0.79958547  0.04190877     0.73820
N146        N  0.91517018  0.92286503  0.05836380    -0.46610
C147        C  0.62429872  0.80985769  0.94300445     0.42870
N148        N  0.77771049  0.71112915  0.05912751    -0.46600
Co149      Co  0.80905688  0.91829351  0.04055776     0.73890
C150        C  0.71598779  0.97025519  0.06029620    -0.06920
C151        C  0.77766424  0.89128219  0.85991475    -0.06490
N152        N  0.76008232  0.74254079  0.99835178    -0.26010
N153        N  0.81093008  0.97838394  0.92194036    -0.46780
H154        H  0.62467596  0.89069419  0.94677522     0.06870
C155        C  0.79359993  0.81366282  0.13001253    -0.06900
Cl156      Cl  0.79004138  0.85119021  0.99493617    -0.49900
C157        C  0.95103380  0.89436682  0.07114187     0.42630
H158        H  0.71833479  0.68580646  0.97137534     0.06840
N159        N  0.77972760  0.89214845  0.12932724    -0.46610
C160        C  0.93084947  0.74440306  0.45169541     0.42480
N161        N  0.87333685  0.76724721  0.48973383     0.01370
C162        C  0.65636918  0.86877664  0.44330489    -0.06510
H163        H  0.78477989  0.93384123  0.35262602     0.06860
C164        C  0.87946177  0.98575833  0.48486478    -0.06860
Co165      Co  0.78153931  0.78876756  0.44419872     0.74180
N166        N  0.78856590  0.87851794  0.39805597    -0.26040
Co167      Co  0.75894548  0.90863009  0.45030045     0.74070
C168        C  0.87173153  0.00179571  0.44176704     0.42580
N169        N  0.89016523  0.88672410  0.54926971     0.00990
N170        N  0.81638603  0.95351008  0.45681975     0.01090
N171        N  0.67058847  0.79040763  0.43737636    -0.46880
H172        H  0.88265718  0.74853691  0.39190745     0.06850
N173        N  0.79836622  0.83323051  0.39559588     0.01380
N174        N  0.73002543  0.94056091  0.50238024     0.01120
C175        C  0.69537399  0.99401591  0.53873940     0.42720
N176        N  0.89548026  0.84074700  0.55177946    -0.25490
C177        C  0.73594560  0.70554755  0.48874765    -0.06410
N178        N  0.91859059  0.75483148  0.49079455    -0.46600
N179        N  0.69466540  0.97131921  0.50145833    -0.46820
C180        C  0.74166012  0.68219130  0.52887703     0.42490
N181        N  0.71100330  0.81489435  0.44107305     0.01360
N182        N  0.80677360  0.82550359  0.59091105    -0.25510
N183        N  0.85357780  0.76627195  0.45189237    -0.26010
N184        N  0.80132071  0.87180630  0.59279071     0.01000
H185        H  0.80335465  0.77062779  0.63678238     0.06890
H186        H  0.75190085  0.98796448  0.59141244     0.06930
N187        N  0.70329389  0.86071441  0.44464896    -0.26060
N188        N  0.84281182  0.95581045  0.49145611    -0.25670
N189        N  0.78360356  0.74631871  0.52925909     0.01370
C190        C  0.80781669  0.85913732  0.33355171     0.42770
C191        C  0.93823021  0.83186863  0.56931519    -0.06920
N192        N  0.75518486  0.94306417  0.53750570    -0.25670
H193        H  0.90774410  0.99484230  0.50709532     0.06910
N194        N  0.80871855  0.81986762  0.35724539    -0.46890
H195        H  0.94920863  0.79795879  0.58090516     0.06900
C196        C  0.78519828  0.84720841  0.65409003     0.42600
C197        C  0.88738875  0.75184974  0.42534414    -0.06420
Co198      Co  0.83939084  0.79419733  0.54080350     0.73820
N199        N  0.92767353  0.91009244  0.56439214    -0.46610
C200        C  0.63461099  0.82215299  0.43906891     0.42870
N201        N  0.77252118  0.70921054  0.55212652    -0.46600
Co202      Co  0.82272734  0.91496849  0.54317243     0.73890
C203        C  0.73540503  0.97464579  0.56280000    -0.06920
C204        C  0.79422201  0.89802814  0.36066826    -0.06490
N205        N  0.76326622  0.74423764  0.49187102    -0.26010
N206        N  0.83239666  0.98006682  0.42661508    -0.46780
H207        H  0.64001358  0.90319675  0.44440858     0.06870
C208        C  0.79744760  0.80695257  0.62803591    -0.06900
Cl209      Cl  0.80047020  0.85161530  0.49472714    -0.49900
C210        C  0.96025829  0.87791167  0.57672214     0.42630
H211        H  0.71889221  0.69317869  0.46012167     0.06840
N212        N  0.78887230  0.88629086  0.63035207    -0.46610
C213        C  0.54695329  0.49748542  0.17559263     0.42480
N214        N  0.60043182  0.45046856  0.15398776     0.01370
C215        C  0.60116200  0.31076455  0.97655525    -0.06510
H216        H  0.44415573  0.30743462  0.03832617     0.06860
C217        C  0.52400912  0.24629706  0.18030793    -0.06860
Co218      Co  0.58501140  0.41653985  0.06627465     0.74180
N219        N  0.50612835  0.34680801  0.05987892    -0.26040
Co220      Co  0.56050009  0.29737972  0.06455401     0.74070
C221        C  0.47882893  0.23904852  0.15682531     0.42580
N222        N  0.61515869  0.32695721  0.20863814     0.00990
N223        N  0.53038037  0.26813945  0.11637399     0.01090
N224        N  0.61300166  0.38993843  0.97637906    -0.46880
H225        H  0.50638471  0.49477886  0.11181197     0.06850
N226        N  0.51522069  0.39234326  0.06266839     0.01380
N227        N  0.61397822  0.24763174  0.06940950     0.01120
C228        C  0.64907839  0.18121696  0.06288989     0.42720
N229        N  0.62738849  0.37189101  0.20785037    -0.25490
C230        C  0.67698771  0.46832566  0.04299216    -0.06410
N231        N  0.58720910  0.47503663  0.18668749    -0.46600
N232        N  0.61854190  0.21115920  0.04387327    -0.46820
C233        C  0.72097799  0.48317840  0.06467685     0.42490
N234        N  0.59939611  0.37513150  0.01339895     0.01360
N235        N  0.70898164  0.35305012  0.15676441    -0.25510
N236        N  0.57154100  0.45513100  0.12116901    -0.26010
N237        N  0.69914376  0.30739423  0.15786530     0.01000
H238        H  0.77461172  0.39325016  0.16011429     0.06890
H239        H  0.68256174  0.18678232  0.12882131     0.06930
N240        N  0.59147124  0.32913834  0.01388635    -0.26060
N241        N  0.55418000  0.26410960  0.15230076    -0.25670
N242        N  0.68247088  0.43489445  0.10306607     0.01370
C243        C  0.44152438  0.38844426  0.04223816     0.42770
C244        C  0.62093751  0.39098431  0.24549908    -0.06920
N245        N  0.63858074  0.24258888  0.10464700    -0.25670
H246        H  0.53261218  0.23900651  0.21262734     0.06910
N247        N  0.47800270  0.41824348  0.05172961    -0.46890
H248        H  0.62933473  0.42701022  0.25446671     0.06900
C249        C  0.77566217  0.31225590  0.16127577     0.42600
C250        C  0.53610849  0.48453950  0.13181760    -0.06420
Co251      Co  0.65552119  0.40300240  0.15552676     0.73820
N252        N  0.60080911  0.31357850  0.24590083    -0.46610
C253        C  0.61555125  0.35099534  0.95182566     0.42870
N254        N  0.72153846  0.46129213  0.10200485    -0.46600
Co255      Co  0.62701229  0.28432185  0.15662661     0.73890
C256        C  0.66293456  0.20230728  0.10297957    -0.06920
C257        C  0.46050120  0.34080815  0.04722163    -0.06490
N258        N  0.65511668  0.43983755  0.06945443    -0.26010
N259        N  0.48561523  0.25365517  0.11776594    -0.46780
H260        H  0.59517358  0.27446983  0.96702163     0.06870
C261        C  0.75627861  0.35954574  0.15908139    -0.06900
Cl262      Cl  0.60710152  0.35022838  0.11068177    -0.49900
C263        C  0.60291373  0.35252351  0.27063000     0.42630
H264        H  0.66074614  0.48234130  0.01479457     0.06840
N265        N  0.73843925  0.28143242  0.16085643    -0.46610
C266        C  0.55218690  0.50096538  0.68838848     0.42480
N267        N  0.55621956  0.42993464  0.66584446     0.01370
C268        C  0.75739142  0.30523051  0.61240813    -0.06510
H269        H  0.70261862  0.43708566  0.50922867     0.06860
C270        C  0.55478313  0.33695014  0.47715424    -0.06860
Co271      Co  0.65615088  0.39639008  0.65826431     0.74180
N272        N  0.68159881  0.41094169  0.56937048    -0.26040
Co273      Co  0.66713769  0.33792267  0.56352757     0.74070
C274        C  0.59226476  0.35647420  0.45114643     0.42580
N275        N  0.49625417  0.34815633  0.57493047     0.00990
N276        N  0.61936399  0.34860935  0.51406429     0.01090
N277        N  0.74943985  0.34382039  0.67371725    -0.46880
H278        H  0.63413521  0.50895827  0.69032648     0.06850
N279        N  0.67796191  0.43202581  0.60608252     0.01380
N280        N  0.64924714  0.26554590  0.56057557     0.01120
C281        C  0.64989920  0.19039311  0.55579882     0.42720
N282        N  0.49204134  0.37196468  0.61013737    -0.25490
C283        C  0.65337545  0.35359012  0.74646919    -0.06410
N284        N  0.52617511  0.46242252  0.67826438    -0.46600
N285        N  0.67830782  0.22917154  0.55583296    -0.46820
C286        C  0.61592069  0.33544901  0.77271136     0.42490
N287        N  0.71114653  0.34883442  0.64911077     0.01360
N288        N  0.52154065  0.28895538  0.65620235    -0.25510
N289        N  0.60103024  0.44425633  0.66765624    -0.26010
N290        N  0.52178993  0.26601083  0.62036797     0.01000
H291        H  0.48065362  0.28213915  0.71097428     0.06890
H292        H  0.56869750  0.18436830  0.56138863     0.06930
N293        N  0.71525732  0.32716759  0.61287319    -0.26060
N294        N  0.57498430  0.33311649  0.51538452    -0.25670
N295        N  0.58679199  0.34685639  0.71109298     0.01370
C296        C  0.70154017  0.48706858  0.56640530     0.42770
C297        C  0.45394231  0.40025169  0.60606524    -0.06920
N298        N  0.60413577  0.25205924  0.56326151    -0.25670
H299        H  0.51951368  0.32426161  0.46815742     0.06910
N300        N  0.68962302  0.47720069  0.60565306    -0.46890
H301        H  0.44107873  0.42416360  0.62964536     0.06900
C302        C  0.46953491  0.22969492  0.65708195     0.42600
C303        C  0.60223762  0.48893613  0.68213569    -0.06420
Co304      Co  0.53902333  0.35949908  0.66107884     0.73820
N305        N  0.46274119  0.35784699  0.54677747    -0.46610
C306        C  0.78012221  0.31632481  0.65282750     0.42870
N307        N  0.57538834  0.33323781  0.74898970    -0.46600
Co308      Co  0.54916681  0.29942345  0.56810386     0.73890
C309        C  0.60114726  0.20518722  0.56073904    -0.06920
C310        C  0.69589333  0.44344376  0.54181470    -0.06490
N311        N  0.63194404  0.35998945  0.70922130    -0.26010
N312        N  0.63122656  0.36217277  0.47631878    -0.46780
H313        H  0.77178250  0.28717036  0.58572382     0.06870
C314        C  0.49264938  0.26691019  0.68206356    -0.06900
Cl315      Cl  0.60289750  0.34826368  0.61274799    -0.49900
C316        C  0.43410500  0.38989776  0.56419589     0.42630
H317        H  0.68906201  0.36530873  0.75525031     0.06840
N318        N  0.48995476  0.23108494  0.61923198    -0.46610
C319        C  0.21495818  0.02260986  0.30280381     0.42480
N320        N  0.19100454  0.07618876  0.26053948     0.01370
C321        C  0.11512487  0.30639398  0.28073402    -0.06510
H322        H  0.03716937  0.19237659  0.38827293     0.06860
C323        C  0.97696173  0.09214335  0.27125551    -0.06860
Co324      Co  0.18143989  0.17426636  0.29550078     0.74180
N325        N  0.09281560  0.18421459  0.34344265    -0.26040
Co326      Co  0.06276282  0.20982094  0.28806589     0.74070
C327        C  0.96464126  0.10565913  0.31399474     0.42580
N328        N  0.06633037  0.06596742  0.20536641     0.00990
N329        N  0.01174040  0.15746461  0.28941155     0.01090
N330        N  0.19212900  0.28405145  0.28896721    -0.46880
H331        H  0.21985078  0.07652039  0.35768123     0.06850
N332        N  0.13714829  0.16908843  0.34656062     0.01380
N333        N  0.02946460  0.23405053  0.23318257     0.01120
C334        C  0.97381416  0.26474232  0.19418184     0.42720
N335        N  0.11123306  0.05345161  0.20331070    -0.25490
C336        C  0.26578753  0.20552925  0.24284928    -0.06410
N337        N  0.20126380  0.03106649  0.26337368    -0.46600
N338        N  0.99903929  0.26974013  0.23064065    -0.46820
C339        C  0.28604254  0.19233447  0.20307447     0.42490
N340        N  0.16281891  0.24702355  0.29037819     0.01360
N341        N  0.13423095  0.13334706  0.15246137    -0.25510
N342        N  0.19660304  0.09992335  0.29603226    -0.26010
N343        N  0.08851642  0.14477204  0.15078578     0.01000
H344        H  0.18772261  0.12663023  0.10559338     0.06890
H345        H  0.97549991  0.20195744  0.14880895     0.06930
N346        N  0.11754407  0.25952428  0.28580538    -0.26060
N347        N  0.00636494  0.12670369  0.25848920    -0.25670
N348        N  0.21922574  0.15563526  0.21023946     0.01370
C349        C  0.11007794  0.16255351  0.40820377     0.42770
C350        C  0.11278028  0.00665891  0.19562607    -0.06920
N351        N  0.02401613  0.20478809  0.20132488    -0.25670
H352        H  0.96695589  0.06076981  0.25367197     0.06910
N353        N  0.14942908  0.15669469  0.38520306    -0.46890
H354        H  0.14497035  0.98685195  0.19061552     0.06900
C355        C  0.11234419  0.15266265  0.08804955     0.42600
C356        C  0.21171071  0.06845985  0.32527343    -0.06420
Co357      Co  0.16471407  0.10483388  0.20619193     0.73820
N358        N  0.03663146  0.03037532  0.19929324    -0.46610
C359        C  0.16455284  0.32280349  0.28274350     0.42870
N360        N  0.25539963  0.16083316  0.18468727    -0.46600
Co361      Co  0.04581847  0.13543278  0.20358480     0.73890
C362        C  0.99135333  0.22188526  0.17455339    -0.06920
C363        C  0.07289088  0.18137658  0.38088541    -0.06490
N364        N  0.22522217  0.18074068  0.24476230    -0.26010
N365        N  0.98768362  0.14626588  0.32278256    -0.46780
H366        H  0.08264945  0.32652051  0.27698384     0.06870
C367        C  0.15216309  0.13683151  0.11429554    -0.06900
Cl368      Cl  0.11378593  0.15638528  0.24814989    -0.49900
C369        C  0.06254997  0.99119111  0.19293856     0.42630
H370        H  0.28093480  0.22696256  0.26792549     0.06840
N371        N  0.07384737  0.15624146  0.11252822    -0.46610
C372        C  0.20733484  0.01644044  0.79548760     0.42480
N373        N  0.18390762  0.07256142  0.75549036     0.01370
C374        C  0.10642887  0.30035535  0.78335908    -0.06510
H375        H  0.03441933  0.18517448  0.89022483     0.06860
C376        C  0.96655392  0.08837422  0.77008791    -0.06860
Co377      Co  0.17490568  0.16889905  0.79278301     0.74180
N378        N  0.08780497  0.17671315  0.84343947    -0.26040
Co379      Co  0.05597047  0.20349404  0.78927930     0.74070
C380        C  0.95461077  0.10136025  0.81290442     0.42580
N381        N  0.05685041  0.06122204  0.70396187     0.00990
N382        N  0.00482883  0.15115189  0.79023897     0.01090
N383        N  0.18412418  0.27946845  0.78783754    -0.46880
H384        H  0.21299518  0.06792315  0.85229695     0.06850
N385        N  0.13223381  0.16160592  0.84497723     0.01380
N386        N  0.02239252  0.22914056  0.73520640     0.01120
C387        C  0.97380943  0.26624744  0.69413792     0.42720
N388        N  0.10222865  0.05031156  0.70190448    -0.25490
C389        C  0.25636201  0.20260275  0.73638677    -0.06410
N390        N  0.19309289  0.02729464  0.75680627    -0.46600
N391        N  0.99645871  0.26805440  0.73195639    -0.46820
C392        C  0.27337414  0.19064291  0.69503606     0.42490
N393        N  0.15564807  0.24176794  0.78983148     0.01360
N394        N  0.12279008  0.13151802  0.65062054    -0.25510
N395        N  0.19041859  0.09471731  0.79154764    -0.26010
N396        N  0.07669808  0.14107639  0.64951178     0.01000
H397        H  0.17678319  0.13116826  0.60387177     0.06890
H398        H  0.97141631  0.20431360  0.64757008     0.06930
N399        N  0.11007343  0.25353451  0.78720550    -0.26060
N400        N  0.99790446  0.12169181  0.75850961    -0.25670
N401        N  0.20864999  0.15259148  0.70564915     0.01370
C402        C  0.10785596  0.15446131  0.90762258     0.42770
C403        C  0.10582804  0.00348993  0.69692043    -0.06920
N404        N  0.01573340  0.20082471  0.70280090    -0.25670
H405        H  0.95435120  0.05859259  0.75133970     0.06910
N406        N  0.14599456  0.14852356  0.88308245    -0.46890
H407        H  0.13859205  0.98443073  0.69222158     0.06900
C408        C  0.10012158  0.15394751  0.58741091     0.42600
C409        C  0.20519114  0.06158559  0.81954580    -0.06420
Co410      Co  0.15498271  0.10202395  0.70294505     0.73820
N411        N  0.02847578  0.02400973  0.69987175    -0.46610
C412        C  0.15545252  0.31787150  0.78355392     0.42870
N413        N  0.24261767  0.15860323  0.67810647    -0.46600
Co414      Co  0.03593027  0.13092543  0.70321960     0.73890
C415        C  0.98681191  0.22154433  0.67498148    -0.06920
C416        C  0.06963844  0.17383464  0.88157665    -0.06490
N417        N  0.21649720  0.17706533  0.74030926    -0.26010
N418        N  0.97977513  0.14032797  0.82312815    -0.46780
H419        H  0.07327277  0.31959600  0.78107662     0.06870
C420        C  0.14065511  0.13867515  0.61289811    -0.06900
Cl421      Cl  0.10552647  0.15157982  0.74698180    -0.49900
C422        C  0.05672375  0.98588001  0.69594562     0.42630
H423        H  0.27308076  0.22411936  0.76067868     0.06840
N424        N  0.06133391  0.15384848  0.61175596    -0.46610
C425        C  0.09959868  0.15779927  0.54153520    -0.00130
C426        C  0.08458054  0.11892676  0.51707122    -0.12010
C427        C  0.08865884  0.11949804  0.47353539     0.02100
C428        C  0.10818951  0.15937750  0.45403200    -0.00220
C429        C  0.12277509  0.19838391  0.47845790    -0.11950
C430        C  0.11877687  0.19777687  0.52195991     0.01990
H431        H  0.07056931  0.08777024  0.53207285     0.14970
H432        H  0.13699084  0.22945344  0.46348191     0.14970
C433        C  0.13405104  0.23869501  0.54597547     0.36620
C434        C  0.07324755  0.07864618  0.44946431     0.36530
N435        N  0.14605688  0.27149522  0.56533435    -0.43720
N436        N  0.06106651  0.04591387  0.43008731    -0.43720
C437        C  0.11057829  0.15339210  0.04193173    -0.00130
C438        C  0.12006919  0.11177033  0.01957330    -0.12010
C439        C  0.11915474  0.11128085  0.97576182     0.02100
C440        C  0.10929532  0.15313175  0.95375100    -0.00220
C441        C  0.09959235  0.19464047  0.97615296    -0.11950
C442        C  0.10040161  0.19509080  0.01990180     0.01990
H443        H  0.12749380  0.07944827  0.03638481     0.14970
H444        H  0.09211040  0.22696853  0.95941837     0.14970
C445        C  0.09291314  0.23915035  0.04160226     0.36620
C446        C  0.12596357  0.06708840  0.95403590     0.36530
N447        N  0.08737421  0.27448803  0.05910637    -0.43720
N448        N  0.13087179  0.03161152  0.93657256    -0.43720
C449        C  0.83116178  0.30978509  0.66472577    -0.00130
C450        C  0.86440866  0.30469215  0.63297363    -0.12010
C451        C  0.91230389  0.29494830  0.64229096     0.02100
C452        C  0.92781431  0.28942814  0.68411945    -0.00220
C453        C  0.89553464  0.29797000  0.71608459    -0.11950
C454        C  0.84750441  0.30821358  0.70674890     0.01990
H455        H  0.85304727  0.30783586  0.60059325     0.14970
H456        H  0.90701986  0.29375005  0.74835948     0.14970
C457        C  0.81537284  0.31409248  0.74086277     0.36620
C458        C  0.94473858  0.28985450  0.60824939     0.36530
N459        N  0.78967692  0.31889683  0.76823657    -0.43720
N460        N  0.97077102  0.28570901  0.58103953    -0.43720
C461        C  0.41789662  0.21938048  0.66162912    -0.00130
C462        C  0.38861394  0.25566735  0.67663337    -0.12010
C463        C  0.34095030  0.24740674  0.68564895     0.02100
C464        C  0.32108744  0.20212752  0.67923701    -0.00220
C465        C  0.34886937  0.16671223  0.66085287    -0.11950
C466        C  0.39710360  0.17511922  0.65191948     0.01990
H467        H  0.40294540  0.29090427  0.68178398     0.14970
H468        H  0.33359431  0.13192854  0.65521386     0.14970
C469        C  0.42488764  0.13760846  0.63420546     0.36620
C470        C  0.31314537  0.28627554  0.70122661     0.36530
N471        N  0.44718330  0.10764405  0.61980094    -0.43720
N472        N  0.29091594  0.31740144  0.71371296    -0.43720
C473        C  0.61665806  0.33943889  0.81850066    -0.00130
C474        C  0.58794315  0.37350170  0.83734402    -0.12010
C475        C  0.58894885  0.37972781  0.88072082     0.02100
C476        C  0.61823748  0.35060680  0.90593379    -0.00220
C477        C  0.64711450  0.31672190  0.88695878    -0.11950
C478        C  0.64724896  0.31162815  0.84348734     0.01990
H479        H  0.56501376  0.39558380  0.81807326     0.14970
H480        H  0.66945797  0.29407497  0.90619285     0.14970
C481        C  0.67806842  0.27688888  0.82520185     0.36620
C482        C  0.55824879  0.41486404  0.89857983     0.36530
N483        N  0.70277233  0.24913024  0.81043425    -0.43720
N484        N  0.53380119  0.44313559  0.91292538    -0.43720
C485        C  0.59859265  0.35319220  0.31658839    -0.00130
C486        C  0.63017680  0.38192515  0.34021288    -0.12010
C487        C  0.62840382  0.38392975  0.38371413     0.02100
C488        C  0.59366059  0.35738705  0.40477954    -0.00220
C489        C  0.56143821  0.32918188  0.38099478    -0.11950
C490        C  0.56397671  0.32650266  0.33736221     0.01990
H491        H  0.65726584  0.40235962  0.32469966     0.14970
H492        H  0.53481906  0.30818075  0.39642569     0.14970
C493        C  0.53019624  0.29670000  0.31473290     0.36620
C494        C  0.66289411  0.41373597  0.40556395     0.36530
N495        N  0.50308126  0.27258058  0.29686460    -0.43720
N496        N  0.69094214  0.43758258  0.42259603    -0.43720
C497        C  0.82632556  0.30057978  0.16932150    -0.00130
C498        C  0.84625892  0.30828200  0.20932653    -0.12010
C499        C  0.89468628  0.29920706  0.21811433     0.02100
C500        C  0.92439795  0.28255653  0.18610232    -0.00220
C501        C  0.90440368  0.27699475  0.14559640    -0.11950
C502        C  0.85592748  0.28562872  0.13709999     0.01990
H503        H  0.82365270  0.32085972  0.23398290     0.14970
H504        H  0.92656263  0.26494747  0.12044127     0.14970
C505        C  0.83739662  0.27930452  0.09501312     0.36620
C506        C  0.91190233  0.30557210  0.26057434     0.36530
N507        N  0.82260336  0.27432476  0.06125183    -0.43720
N508        N  0.92539434  0.31062572  0.29472070    -0.43720
C509        C  0.43134360  0.22535137  0.17142050    -0.00130
C510        C  0.40784512  0.18690187  0.15202683    -0.12010
C511        C  0.36042873  0.17561465  0.16109583     0.02100
C512        C  0.33548239  0.20350808  0.19005285    -0.00220
C513        C  0.35911584  0.24265124  0.20868648    -0.11950
C514        C  0.40640397  0.25385750  0.19943319     0.01990
H515        H  0.42660005  0.16579525  0.12936124     0.14970
H516        H  0.34037773  0.26539684  0.22999537     0.14970
C517        C  0.42734176  0.29671190  0.21658695     0.36620
C518        C  0.33887096  0.13505459  0.14044092     0.36530
N519        N  0.44395472  0.33135518  0.22986203    -0.43720
N520        N  0.32181242  0.10250814  0.12374546    -0.43720
C521        C  0.99177417  0.88887823  0.61244162    -0.00130
C522        C  0.97001995  0.89786481  0.65047585    -0.12010
C523        C  0.99315942  0.92541745  0.68101967     0.02100
C524        C  0.03922027  0.94337077  0.67370829    -0.00220
C525        C  0.06357197  0.92805276  0.63828201    -0.11950
C526        C  0.03975550  0.90141448  0.60723422     0.01990
H527        H  0.93302918  0.88755520  0.65449629     0.14970
H528        H  0.09919812  0.94114236  0.63246701     0.14970
C529        C  0.06350117  0.89122703  0.56881433     0.36620
C530        C  0.96691546  0.93844089  0.71748408     0.36530
N531        N  0.08251003  0.88297825  0.53801488    -0.43720
N532        N  0.94497717  0.94857248  0.74624866    -0.43720
C533        C  0.90150423  0.03086559  0.41489773    -0.00130
C534        C  0.93548802  0.00828090  0.39044672    -0.12010
C535        C  0.95583902  0.03144727  0.35664065     0.02100
C536        C  0.94191317  0.07795399  0.34693412    -0.00220
C537        C  0.90912909  0.10097021  0.37235664    -0.11950
C538        C  0.88828612  0.07758170  0.40565777     0.01990
H539        H  0.94475857  0.97189373  0.39680763     0.14970
H540        H  0.89902383  0.13707963  0.36559526     0.14970
C541        C  0.85196297  0.10145335  0.42889977     0.36620
C542        C  0.99170653  0.00726663  0.33320670     0.36530
N543        N  0.82271204  0.12045687  0.44742121    -0.43720
N544        N  0.02061744  0.98797422  0.31451501    -0.43720
C545        C  0.73046804  0.63187901  0.53759183    -0.00130
C546        C  0.75938978  0.60785733  0.56675857    -0.12010
C547        C  0.75179714  0.56001973  0.57500391     0.02100
C548        C  0.71514805  0.53492030  0.55343356    -0.00220
C549        C  0.68652870  0.55832256  0.52393319    -0.11950
C550        C  0.69322045  0.60659069  0.51635302     0.01990
H551        H  0.78825030  0.62637253  0.58318254     0.14970
H552        H  0.65723764  0.53945312  0.50843782     0.14970
C553        C  0.65924186  0.62941736  0.48872827     0.36620
C554        C  0.78238368  0.53724197  0.60558376     0.36530
N555        N  0.63165048  0.64739161  0.46667974    -0.43720
N556        N  0.80689208  0.51896221  0.63005214    -0.43720
C557        C  0.68047929  0.04368954  0.54324553    -0.00130
C558        C  0.68081788  0.07296034  0.50800666    -0.12010
C559        C  0.67313106  0.12152977  0.51174640     0.02100
C560        C  0.66486802  0.14135172  0.55119327    -0.00220
C561        C  0.66341488  0.11231410  0.58618920    -0.11950
C562        C  0.67144148  0.06384571  0.58262987     0.01990
H563        H  0.68817201  0.05817013  0.47757585     0.14970
H564        H  0.65536203  0.12754915  0.61633587     0.14970
C565        C  0.66908662  0.03573330  0.61979361     0.36620
C566        C  0.67260894  0.15013216  0.47466864     0.36530
N567        N  0.66701407  0.01391180  0.65001479    -0.43720
N568        N  0.67203360  0.17302336  0.44493765    -0.43720
C569        C  0.79338003  0.85115721  0.78805885    -0.00130
C570        C  0.75837900  0.87731388  0.76638047    -0.12010
C571        C  0.75467749  0.87580553  0.72282819     0.02100
C572        C  0.78667163  0.84820799  0.70012368    -0.00220
C573        C  0.82168679  0.82198309  0.72171185    -0.11950
C574        C  0.82527209  0.82326811  0.76534840     0.01990
H575        H  0.73288388  0.89806144  0.78348322     0.14970
H576        H  0.84695107  0.80114312  0.70445156     0.14970
C577        C  0.86305854  0.79721273  0.78598247     0.36620
C578        C  0.71598648  0.90049022  0.70226351     0.36530
N579        N  0.89344173  0.77653097  0.80257817    -0.43720
N580        N  0.68447223  0.91958189  0.68581868    -0.43720
C581        C  0.78145611  0.85721483  0.20085651    -0.00130
C582        C  0.80434831  0.89617708  0.22007962    -0.12010
C583        C  0.81484196  0.89687775  0.26295877     0.02100
C584        C  0.80098332  0.85848388  0.28774635    -0.00220
C585        C  0.77616417  0.82044220  0.26889338    -0.11950
C586        C  0.76588311  0.81981559  0.22597237     0.01990
H587        H  0.81517648  0.92594779  0.20148617     0.14970
H588        H  0.76342731  0.79169840  0.28792149     0.14970
C589        C  0.73614399  0.78228759  0.20902815     0.36620
C590        C  0.84158613  0.93644149  0.28036120     0.36770
N591        N  0.71128090  0.75277335  0.19580215    -0.43720
N592        N  0.86317723  0.96806364  0.29421408    -0.43720
C593        C  0.98141989  0.90832954  0.10751093    -0.00130
C594        C  0.03121013  0.90392241  0.10642812    -0.12010
C595        C  0.06059103  0.92563140  0.13738405     0.02100
C596        C  0.03946944  0.95087913  0.17036376    -0.00220
C597        C  0.98989611  0.94770289  0.17467916    -0.11950
C598        C  0.96084677  0.92916363  0.14284554     0.01990
H599        H  0.04714878  0.88659427  0.07998312     0.14970
H600        H  0.97314142  0.96566051  0.20050630     0.14970
C601        C  0.91034268  0.93804524  0.14488251     0.36620
C602        C  0.11157634  0.92322338  0.13310353     0.36530
N603        N  0.87025527  0.94730301  0.14519891    -0.43720
N604        N  0.15244238  0.92053300  0.12936945    -0.43720
C605        C  0.92748305  0.07504153  0.84380945    -0.00130
C606        C  0.89338485  0.09960983  0.86665977    -0.12010
C607        C  0.86882542  0.07738054  0.89852702     0.02100
C608        C  0.87905773  0.03014988  0.90829460    -0.00220
C609        C  0.91391275  0.00583390  0.88623656    -0.11950
C610        C  0.93853759  0.02806670  0.85433657     0.01990
H611        H  0.88574719  0.13616614  0.85937819     0.14970
H612        H  0.92147134  0.96930374  0.89366547     0.14970
C613        C  0.97682604  0.00306922  0.83476205     0.36620
C614        C  0.83290177  0.10335528  0.92047333     0.36530
N615        N  0.00798147  0.98325479  0.81952850    -0.43720
N616        N  0.80414748  0.12409538  0.93814787    -0.43720
C617        C  0.74008373  0.53119158  0.05920564    -0.00130
C618        C  0.74044640  0.56251199  0.09337819    -0.12010
C619        C  0.74446287  0.61124100  0.08748114     0.02100
C620        C  0.74804904  0.62917742  0.04683173    -0.00220
C621        C  0.75172492  0.59747974  0.01315650    -0.11950
C622        C  0.74803370  0.54885096  0.01907034     0.01990
H623        H  0.73423589  0.54931811  0.12443411     0.14970
H624        H  0.75694197  0.61057525  0.98193503     0.14970
C625        C  0.75133056  0.51780161  0.98334603     0.36620
C626        C  0.74176006  0.64195784  0.12335429     0.36530
N627        N  0.75410652  0.49296181  0.95471543    -0.43720
N628        N  0.73969374  0.66617448  0.15241579    -0.43720
C629        C  0.64828046  0.13036114  0.05398303    -0.00130
C630        C  0.66385051  0.11456940  0.01531363    -0.12010
C631        C  0.66846455  0.06631522  0.00720703     0.02100
C632        C  0.65693610  0.03323790  0.03838106    -0.00220
C633        C  0.63782373  0.04911071  0.07577101    -0.11950
C634        C  0.63270907  0.09732476  0.08359053     0.01990
H635        H  0.67461066  0.14002554  0.99219882     0.14970
H636        H  0.62858877  0.02382274  0.09952714     0.14970
C637        C  0.61101923  0.11183148  0.12197499     0.36620
C638        C  0.68863461  0.05228550  0.96802713     0.36530
N639        N  0.59341320  0.12355578  0.15258829    -0.43720
N640        N  0.70478948  0.04114473  0.93661821    -0.43720
C641        C  0.40621800  0.40198246  0.01000324    -0.00130
C642        C  0.42029750  0.40045230  0.96834800    -0.12010
C643        C  0.39585371  0.42647937  0.93784189     0.02100
C644        C  0.35636938  0.45396866  0.94895499    -0.00220
C645        C  0.33913977  0.45115094  0.98963334    -0.11950
C646        C  0.36416683  0.42573854  0.02033020     0.01990
H647        H  0.45280783  0.38219640  0.96035892     0.14970
H648        H  0.30878248  0.47227110  0.99843889     0.14970
C649        C  0.34805950  0.42716090  0.06269541     0.36620
C650        C  0.41376842  0.42714502  0.89601639     0.36530
N651        N  0.33497350  0.42815188  0.09661243    -0.43720
N652        N  0.42805414  0.42783297  0.86248942    -0.43720
C653        C  0.53238981  0.53715220  0.71581134    -0.00130
C654        C  0.54570026  0.53800312  0.75836230    -0.12010
C655        C  0.51856164  0.56311666  0.78729194     0.02100
C656        C  0.47796659  0.58828165  0.77336054    -0.00220
C657        C  0.46606734  0.58838541  0.73045941    -0.11950
C658        C  0.49252027  0.56296268  0.70193168     0.01990
H659        H  0.57561537  0.51693221  0.76928735     0.14970
H660        H  0.43473517  0.60688211  0.71895749     0.14970
C661        C  0.47688275  0.56236396  0.65862189     0.36620
C662        C  0.53274365  0.56209384  0.83082222     0.36530
N663        N  0.46424729  0.56185547  0.62399657    -0.43720
N664        N  0.54413802  0.56117501  0.86573029    -0.43720
C665        C  0.57348648  0.79817365  0.93635411    -0.00130
C666        C  0.55728084  0.78454806  0.89644187    -0.12010
C667        C  0.50844178  0.77848632  0.88752235     0.02100
C668        C  0.47490404  0.78596211  0.91920665    -0.00220
C669        C  0.49138069  0.79952984  0.95917459    -0.11950
C670        C  0.54018989  0.80635571  0.96778032     0.01990
H671        H  0.58285822  0.77923240  0.87202651     0.14970
H672        H  0.46605303  0.80398643  0.98393507     0.14970
C673        C  0.55546504  0.82058208  0.00934592     0.36620
C674        C  0.49426487  0.76274947  0.84609413     0.36530
N675        N  0.56770674  0.83189027  0.04268391    -0.43720
N676        N  0.48317993  0.75029547  0.81278011    -0.43720
C677        C  0.96864347  0.72428989  0.93893542    -0.00130
C678        C  0.98909889  0.74288695  0.90329247    -0.12010
C679        C  0.03650729  0.73275072  0.89349371     0.02100
C680        C  0.06433562  0.70217233  0.91923716    -0.00220
C681        C  0.04308899  0.68289861  0.95454152    -0.11950
C682        C  0.99595203  0.69379212  0.96457870     0.01990
H683        H  0.96859773  0.76705273  0.88393614     0.14970
H684        H  0.06308784  0.65904775  0.97444852     0.14970
C685        C  0.97594254  0.67222995  0.00092472     0.36620
C686        C  0.05542231  0.75589691  0.85750049     0.36530
N687        N  0.95976322  0.65487766  0.02994204    -0.43720
N688        N  0.06959942  0.77504417  0.82854128    -0.43720
C689        C  0.18877624  0.46754322  0.79213535    -0.00130
C690        C  0.22350524  0.43386059  0.80341985    -0.12010
C691        C  0.21487404  0.38513604  0.79877313     0.02100
C692        C  0.17034315  0.36884811  0.78258957    -0.00220
C693        C  0.13716515  0.40279575  0.76815703    -0.11950
C694        C  0.14595541  0.45159001  0.77288127     0.01990
H695        H  0.25660229  0.44565704  0.81851820     0.14970
H696        H  0.10318962  0.39135748  0.75462540     0.14970
C697        C  0.10883672  0.48433903  0.76115057     0.36620
C698        C  0.25106189  0.35302026  0.81389439     0.36530
N699        N  0.07901742  0.51058904  0.75181465    -0.43720
N700        N  0.28018057  0.32744118  0.82611054    -0.43720
C701        C  0.21675221  0.96600513  0.80655047    -0.00130
C702        C  0.21316679  0.94981196  0.84770929    -0.12010
C703        C  0.21747506  0.90122236  0.85679172     0.02100
C704        C  0.22436434  0.86812172  0.82433469    -0.00220
C705        C  0.22851690  0.88418606  0.78370385    -0.11950
C706        C  0.22555171  0.93211945  0.77451629     0.01990
H707        H  0.20658175  0.97482979  0.87260190     0.14970
H708        H  0.23560790  0.85898851  0.75895200     0.14970
C709        C  0.23326314  0.94478572  0.73160243     0.36620
C710        C  0.21548413  0.88606636  0.89952780     0.36530
N711        N  0.23940087  0.95440337  0.69713753    -0.43720
N712        N  0.21410248  0.87380771  0.93380454    -0.43720
C713        C  0.30108040  0.65650871  0.57021800    -0.00130
C714        C  0.33694222  0.67824915  0.59492412    -0.12010
C715        C  0.33590853  0.67691113  0.63855436     0.02100
C716        C  0.29753751  0.65413625  0.65856220    -0.00220
C717        C  0.26308972  0.63032155  0.63379944    -0.11950
C718        C  0.26471966  0.63075395  0.59024820     0.01990
H719        H  0.36567376  0.69710549  0.58016678     0.14970
H720        H  0.23452330  0.61108149  0.64841278     0.14970
C721        C  0.22922852  0.60301762  0.56743295     0.36620
C722        C  0.37465141  0.69989639  0.66142237     0.36530
N723        N  0.20091382  0.58040396  0.54940035    -0.43720
N724        N  0.40599672  0.71830492  0.67936941    -0.43720
C725        C  0.29154378  0.65918573  0.15669791    -0.00130
C726        C  0.33040839  0.63915709  0.13668917    -0.12010
C727        C  0.33209123  0.63812073  0.09318700     0.02100
C728        C  0.29470169  0.65850056  0.06910563    -0.00220
C729        C  0.25588299  0.67863560  0.08918383    -0.11950
C730        C  0.25414233  0.67948816  0.13269878     0.01990
H731        H  0.35896554  0.62325930  0.15512090     0.14970
H732        H  0.22725308  0.69447007  0.07080388     0.14970
C733        C  0.21491386  0.70356514  0.15181203     0.36620
C734        C  0.37108431  0.61339844  0.07433245     0.36530
N735        N  0.18361677  0.72309065  0.16711868    -0.43720
N736        N  0.40222263  0.59329893  0.05934270    -0.43720
C737        C  0.40215180  0.41910542  0.53846753    -0.00130
C738        C  0.40891763  0.46788802  0.54007411    -0.12010
C739        C  0.39067155  0.49636341  0.50835566     0.02100
C740        C  0.36402116  0.47589038  0.47457052    -0.00220
C741        C  0.35317100  0.42761400  0.47523702    -0.11950
C742        C  0.37244727  0.39897774  0.50676772     0.01990
H743        H  0.43178220  0.48344414  0.56434078     0.14970
H744        H  0.33171181  0.41193760  0.45008848     0.14970
C745        C  0.36230241  0.34894759  0.50552073     0.36620
C746        C  0.40248918  0.54596147  0.51068869     0.36530
N747        N  0.35400090  0.30887806  0.50467002    -0.43720
N748        N  0.41351630  0.58531387  0.51296056    -0.43720
C749        C  0.47349397  0.57297350  0.27109461    -0.00130
C750        C  0.44696418  0.54766932  0.24049515    -0.12010
C751        C  0.46966823  0.52327065  0.20842846     0.02100
C752        C  0.51983340  0.52486897  0.20630644    -0.00220
C753        C  0.54619337  0.54972759  0.23730019    -0.11950
C754        C  0.52358162  0.57383234  0.26936455     0.01990
H755        H  0.40828252  0.54760183  0.24134998     0.14970
H756        H  0.58488131  0.55074978  0.23622614     0.14970
C757        C  0.55269653  0.60066084  0.29887428     0.36620
C758        C  0.44088011  0.49539687  0.17946879     0.36530
N759        N  0.57699831  0.62185846  0.32202812    -0.43720
N760        N  0.41775908  0.47275571  0.15647905    -0.43720
C761        C  0.58317132  0.81097816  0.43278627    -0.00130
C762        C  0.57045086  0.77230228  0.40736041    -0.12010
C763        C  0.52255386  0.76117833  0.39884567     0.02100
C764        C  0.48604594  0.78890623  0.41584580    -0.00220
C765        C  0.49840694  0.82710789  0.44189346    -0.11950
C766        C  0.54654154  0.83832470  0.45062332     0.01990
H767        H  0.59803919  0.75084477  0.39370076     0.14970
H768        H  0.47045037  0.84746685  0.45622466     0.14970
C769        C  0.55695147  0.87621345  0.47985431     0.36620
C770        C  0.51169179  0.72046448  0.37308764     0.36530
N771        N  0.56501038  0.90649637  0.50346543    -0.43720
N772        N  0.50284322  0.68777002  0.35252233    -0.43720
C773        C  0.98064092  0.73181807  0.44033451    -0.00130
C774        C  0.99059259  0.72015588  0.39883985    -0.12010
C775        C  0.03691782  0.70764420  0.38726206     0.02100
C776        C  0.07453700  0.70667374  0.41757553    -0.00220
C777        C  0.06480605  0.71808869  0.45873167    -0.11950
C778        C  0.01895582  0.73079124  0.47041031     0.01990
H779        H  0.96213609  0.72023610  0.37536182     0.14970
H780        H  0.09357441  0.71765125  0.48204278     0.14970
C781        C  0.01399727  0.74224315  0.51389520     0.36620
C782        C  0.04416524  0.69387251  0.34447795     0.36530
N783        N  0.01295445  0.75056352  0.54918624    -0.43720
N784        N  0.04986351  0.68261201  0.31021705    -0.43720
C785        C  0.20045754  0.47133193  0.29580035    -0.00130
C786        C  0.22895884  0.43659766  0.31532673    -0.12010
C787        C  0.21936757  0.38827542  0.31015333     0.02100
C788        C  0.18091210  0.37316895  0.28407158    -0.00220
C789        C  0.15498082  0.40764435  0.26153415    -0.11950
C790        C  0.16475338  0.45634109  0.26690139     0.01990
H791        H  0.25746264  0.44725371  0.33695270     0.14970
H792        H  0.12594770  0.39661892  0.24065452     0.14970
C793        C  0.13616677  0.49011106  0.24418648     0.36620
C794        C  0.24663635  0.35554907  0.33538896     0.36530
N795        N  0.11353586  0.51724201  0.22568167    -0.43720
N796        N  0.26825846  0.32951898  0.35597948    -0.43720
C797        C  0.23068903  0.97438728  0.31507004    -0.00130
C798        C  0.20877315  0.95017229  0.34768252    -0.12010
C799        C  0.21441776  0.90083002  0.35221961     0.02100
C800        C  0.24240052  0.87518389  0.32389693    -0.00220
C801        C  0.26617870  0.89994535  0.29295625    -0.11950
C802        C  0.26034772  0.94858442  0.28807925     0.01990
H803        H  0.18553688  0.96925442  0.36832766     0.14970
H804        H  0.28862559  0.88085676  0.27156024     0.14970
C805        C  0.28435056  0.97093965  0.25400045     0.36620
C806        C  0.19226865  0.87746661  0.38659111     0.36530
N807        N  0.30330678  0.98861336  0.22647925    -0.43720
N808        N  0.17488105  0.85872466  0.41436654    -0.43720
loop_ 
_geom_bond_atom_site_label_1 
_geom_bond_atom_site_label_2 
_geom_bond_distance 
_geom_bond_site_symmetry_2 
_ccdc_geom_bond_type 
C1           N19   1.346       .  A
C1           C38   1.475       .  S
C1          C800   1.489       .  S
N2           N19   1.322       .  A
N2           N24   1.325       .  A
N2          Co39   2.072       .  S
C3           N28   1.326       .  A
C3           C41   1.443       .  S
C3           H48   1.081       .  S
H4           C45   1.082       .  S
C5           N29   1.345       .  A
C5            C9   1.470       .  S
C5           H34   1.081       .  S
Co6          N24   2.144       .  S
Co6          N14   2.052       .  S
Co6          N46   2.052       .  S
Co6          N22   2.155       .  S
Co6         Cl50   2.441       .  S
N7           C45   1.345       .  A
N7           N14   1.317       .  A
N7           Co8   2.091       .  S
Co8          N11   2.058       .  S
Co8          N28   2.049       .  S
Co8          N15   2.088       .  S
Co8         Cl50   2.452       .  S
C9           N47   1.345       .  A
C9          C713   1.488       .  S
N10          N17   1.315       .  A
N10          N40   1.320       .  A
N10         Co43   2.062       .  S
N11          N29   1.323       .  A
N11          N47   1.319       .  A
N12          C41   1.369       .  A
N12          N22   1.340       .  A
H13          C38   1.081       .  S
N14          N35   1.321       .  A
N15          N33   1.315       .  A
N15          N20   1.325       .  A
C16          N20   1.352       .  A
C16          C44   1.456       .  S
C16         C740   1.474       .  S
N17          C32   1.344       .  A
N17         Co39   2.090       .  S
C18          N46   1.336       .  A
C18          C21   1.454       .  S
C18          H52   1.081       .  S
C21          N42   1.349       .  A
C21         C725   1.469       .  S
N22          N28   1.322       .  A
N23          C49   1.332       .  A
N23          N25   1.321       .  A
N23         Co39   2.051       .  S
N24          C38   1.353       .  A
N25          N53   1.332       .  A
N25         Co43   2.123       .  S
H26          C49   1.081       .  S
H27          C44   1.082       .  S
N29         Co43   2.120       .  S
N30          N42   1.324       .  A
N30          N46   1.315       .  A
N30         Co39   2.081       .  S
C31          N35   1.342       .  A
C31          C45   1.469       .  S
C31         C776   1.480       .  S
C32          C51   1.470       .  S
C32          H36   1.081       .  S
N33          C44   1.332       .  A
N33         Co43   2.047       .  S
C37          N53   1.358       .  A
C37          C49   1.443       .  S
C37         C749   1.471       .  S
Co39        Cl50   2.456       .  S
N40          C51   1.346       .  A
C41         C785   1.497       .  S
Co43        Cl50   2.429       .  S
C51         C764   1.476       .  S
C54          N72   1.351   1_554  A
C54          C91   1.456   1_554  S
C54         C728   1.472       .  S
N55          N72   1.324       .  A
N55          N77   1.323       .  A
N55         Co92   2.079       .  S
C56          N81   1.327       .  A
C56          C94   1.448       .  S
C56         H101   1.080       .  S
H57          C98   1.082       .  S
C58          N82   1.349       .  A
C58          C62   1.471       .  S
C58          H87   1.080       .  S
Co59         N77   2.088       .  S
Co59         N67   2.066       .  S
Co59         N99   2.061       .  S
Co59         N75   2.112       .  S
Co59       Cl103   2.438       .  S
N60          C98   1.342       .  A
N60          N67   1.315       .  A
N60         Co61   2.073       .  S
Co61         N64   2.065       .  S
Co61         N81   2.049       .  S
Co61         N68   2.072       .  S
Co61       Cl103   2.446       .  S
C62         N100   1.345       .  A
C62         C704   1.478       .  S
N63          N70   1.318       .  A
N63          N93   1.322       .  A
N63         Co96   2.072       .  S
N64          N82   1.323       .  A
N64         N100   1.322       .  A
N65          C94   1.361       .  A
N65          N75   1.331       .  A
H66          C91   1.081   1_554  S
N67          N88   1.320       .  A
N68          N86   1.316       .  A
N68          N73   1.321       .  A
C69          N73   1.345       .  A
C69          C97   1.471       .  S
C69         C716   1.489       .  S
N70          C85   1.348       .  A
N70         Co92   2.103       .  S
C71          N99   1.336       .  A
C71          C74   1.459       .  S
C71         H105   1.082       .  S
C74          N95   1.351       .  A
C74         C644   1.472       .  S
N75          N81   1.318       .  A
N76         C102   1.329       .  A
N76          N78   1.323       .  A
N76         Co92   2.060       .  S
N77          C91   1.336       .  A
N78         N106   1.338       .  A
N78         Co96   2.147       .  S
H79         C102   1.081       .  S
H80          C97   1.081       .  S
N82         Co96   2.132       .  S
N83          N95   1.325       .  A
N83          N99   1.317       .  A
N83         Co92   2.089       .  S
C84          N88   1.346       .  A
C84          C98   1.468       .  S
C84         C668   1.476       .  S
C85         C104   1.476       .  S
C85          H89   1.081       .  S
N86          C97   1.344       .  A
N86         Co96   2.081       .  S
C90         N106   1.367       .  A
C90         C102   1.441       .  S
C90         C689   1.491       .  S
Co92       Cl103   2.451       .  S
N93         C104   1.346       .  A
C94         C656   1.482       .  S
Co96       Cl103   2.450       .  S
C104        C680   1.497       .  S
C107        N125   1.343       .  A
C107        C144   1.471       .  S
C107        C677   1.480       .  S
N108        N125   1.320       .  A
N108        N130   1.324       .  A
N108       Co145   2.070   1_556  S
C109        N134   1.334       .  A
C109        C147   1.445       .  S
C109        H154   1.082       .  S
H110        C151   1.082       .  S
C111        N135   1.345       .  A
C111        C115   1.463   1_565  S
C111        H140   1.081   1_566  S
Co112       N130   2.118       .  S
Co112       N120   2.082       .  S
Co112       N152   2.071       .  S
Co112       N128   2.117       .  S
Co112      Cl156   2.446       .  S
N113        C151   1.336       .  A
N113        N120   1.316       .  A
N113       Co114   2.066       .  S
Co114       N117   2.058       .  S
Co114       N134   2.056       .  S
Co114       N121   2.063   1_556  S
Co114      Cl156   2.442       .  S
C115        N153   1.341   1_545  A
C115        C608   1.463       .  S
N116        N123   1.315       .  A
N116        N146   1.320       .  A
N116       Co149   2.072       .  S
N117        N135   1.320       .  A
N117        N153   1.319       .  A
N118        C147   1.356       .  A
N118        N128   1.329       .  A
H119        C144   1.081       .  S
N120        N141   1.326       .  A
N121        N139   1.315       .  A
N121        N126   1.321       .  A
C122        N126   1.348       .  A
C122        C150   1.459       .  S
C122        C632   1.468   1_565  S
N123        C138   1.343       .  A
N123       Co145   2.080       .  S
C124        N152   1.334       .  A
C124        C127   1.458   1_556  S
C124        H158   1.081       .  S
C127        N148   1.350       .  A
C127        C620   1.476       .  S
N128        N134   1.321       .  A
N129        C155   1.339       .  A
N129        N131   1.320       .  A
N129       Co145   2.080       .  S
N130        C144   1.349       .  A
N131        N159   1.326       .  A
N131       Co149   2.100       .  S
H132        C155   1.081       .  S
H133        C150   1.082       .  S
N135       Co149   2.096   1_556  S
N136        N148   1.324       .  A
N136        N152   1.319   1_554  A
N136       Co145   2.075       .  S
C137        N141   1.353       .  A
C137        C151   1.455       .  S
C137        C569   1.478       .  S
C138        C157   1.463       .  S
C138        H142   1.081       .  S
N139        C150   1.335       .  A
N139       Co149   2.070       .  S
C143        N159   1.353       .  A
C143        C155   1.462       .  S
C143        C581   1.483       .  S
Co145      Cl156   2.446   1_554  S
N146        C157   1.350       .  A
C147        C665   1.470       .  S
Co149      Cl156   2.438   1_554  S
C157        C593   1.477       .  S
C160        N178   1.340       .  A
C160        C197   1.482       .  S
C160        C773   1.495       .  S
N161        N178   1.318       .  A
N161        N183   1.322       .  A
N161       Co198   2.059       .  S
C162        N187   1.336       .  A
C162        C200   1.455       .  S
C162        H207   1.081       .  S
H163        C204   1.081       .  S
C164        N188   1.350       .  A
C164        C168   1.470   1_565  S
C164        H193   1.081       .  S
Co165       N183   2.130       .  S
Co165       N173   2.074       .  S
Co165       N205   2.062       .  S
Co165       N181   2.115       .  S
Co165      Cl209   2.445       .  S
N166        C204   1.337       .  A
N166        N173   1.316       .  A
N166       Co167   2.069       .  S
Co167       N170   2.051       .  S
Co167       N187   2.065       .  S
Co167       N174   2.079       .  S
Co167      Cl209   2.443       .  S
C168        N206   1.338   1_545  A
C168        C533   1.468       .  S
N169        N176   1.315       .  A
N169        N199   1.319       .  A
N169       Co202   2.062       .  S
N170        N188   1.321       .  A
N170        N206   1.317       .  A
N171        C200   1.357       .  A
N171        N181   1.327       .  A
H172        C197   1.081       .  S
N173        N194   1.324       .  A
N174        N192   1.315       .  A
N174        N179   1.323       .  A
C175        N179   1.353       .  A
C175        C203   1.458       .  S
C175        C557   1.477   1_565  S
N176        C191   1.337       .  A
N176       Co198   2.067       .  S
C177        N205   1.335       .  A
C177        C180   1.458       .  S
C177        H211   1.080       .  S
C180        N201   1.357       .  A
C180        C545   1.488       .  S
N181        N187   1.322       .  A
N182        C208   1.337       .  A
N182        N184   1.322       .  A
N182       Co198   2.066       .  S
N183        C197   1.353       .  A
N184        N212   1.326       .  A
N184       Co202   2.111       .  S
H185        C208   1.081       .  S
H186        C203   1.082       .  S
N188       Co202   2.116       .  S
N189        N201   1.326       .  A
N189        N205   1.316       .  A
N189       Co198   2.088       .  S
C190        N194   1.352       .  A
C190        C204   1.457       .  S
C190        C584   1.477       .  S
C191        C210   1.455       .  S
C191        H195   1.076       .  S
N192        C203   1.336       .  A
N192       Co202   2.062       .  S
C196        N212   1.353       .  A
C196        C208   1.457       .  S
C196        C572   1.476       .  S
Co198      Cl209   2.449       .  S
N199        C210   1.349       .  A
C200        C761   1.483       .  S
Co202      Cl209   2.433       .  S
C210        C521   1.459       .  S
C213        N231   1.340       .  A
C213        C250   1.473       .  S
C213        C752   1.478       .  S
N214        N231   1.317       .  A
N214        N236   1.320       .  A
N214       Co251   2.053       .  S
C215        N240   1.337   1_556  A
C215        C253   1.454       .  S
C215        H260   1.081       .  S
H216        C257   1.081       .  S
C217        N241   1.348       .  A
C217        C221   1.469       .  S
C217        H246   1.080       .  S
Co218       N236   2.109       .  S
Co218       N226   2.069       .  S
Co218       N258   2.069       .  S
Co218       N234   2.104       .  S
Co218      Cl262   2.440       .  S
N219        C257   1.341       .  A
N219        N226   1.315       .  A
N219       Co220   2.079       .  S
Co220       N223   2.061       .  S
Co220       N240   2.071       .  S
Co220       N227   2.067       .  S
Co220      Cl262   2.446       .  S
C221        N259   1.340       .  A
C221        C509   1.473       .  S
N222        N229   1.317       .  A
N222        N252   1.328       .  A
N222       Co255   2.087       .  S
N223        N241   1.323       .  A
N223        N259   1.320       .  A
N224        C253   1.354       .  A
N224        N234   1.327   1_556  A
H225        C250   1.081       .  S
N226        N247   1.321       .  A
N227        N245   1.318       .  A
N227        N232   1.322       .  A
C228        N232   1.347       .  A
C228        C256   1.457       .  S
C228        C629   1.466       .  S
N229        C244   1.337       .  A
N229       Co251   2.073       .  S
C230        N258   1.334       .  A
C230        C233   1.458       .  S
C230        H264   1.082       .  S
C233        N254   1.352       .  A
C233        C617   1.472       .  S
N234        N240   1.321       .  A
N235        C261   1.337       .  A
N235        N237   1.322       .  A
N235       Co251   2.067       .  S
N236        C250   1.349       .  A
N237        N265   1.330       .  A
N237       Co255   2.120       .  S
H238        C261   1.081       .  S
H239        C256   1.081       .  S
N241       Co255   2.117       .  S
N242        N254   1.323       .  A
N242        N258   1.316       .  A
N242       Co251   2.073       .  S
C243        N247   1.349       .  A
C243        C257   1.462       .  S
C243        C641   1.468       .  S
C244        C263   1.456       .  S
C244        H248   1.081       .  S
N245        C256   1.334       .  A
N245       Co255   2.070       .  S
C249        N265   1.356       .  A
C249        C261   1.450       .  S
C249        C497   1.477       .  S
Co251      Cl262   2.448       .  S
N252        C263   1.354       .  A
C253        C476   1.476       .  S
Co255      Cl262   2.446       .  S
C263        C485   1.482       .  S
C266        N284   1.342       .  A
C266        C303   1.464       .  S
C266        C653   1.466       .  S
N267        N284   1.317       .  A
N267        N289   1.317       .  A
N267       Co304   2.053       .  S
C268        N293   1.338       .  A
C268        C306   1.461       .  S
C268        H313   1.082       .  S
H269        C310   1.081       .  S
C270        N294   1.343       .  A
C270        C274   1.466       .  S
C270        H299   1.081       .  S
Co271       N289   2.087       .  S
Co271       N279   2.065       .  S
Co271       N311   2.066       .  S
Co271       N287   2.078       .  S
Co271      Cl315   2.460       .  S
N272        C310   1.347       .  A
N272        N279   1.323       .  A
N272       Co273   2.111       .  S
Co273       N276   2.075       .  S
Co273       N293   2.079       .  S
Co273       N280   2.109       .  S
Co273      Cl315   2.442       .  S
C274        N312   1.350       .  A
C274        C488   1.489       .  S
N275        N282   1.319       .  A
N275        N305   1.318       .  A
N275       Co308   2.047       .  S
N276        N294   1.318       .  A
N276        N312   1.323       .  A
N277        C306   1.351       .  A
N277        N287   1.325       .  A
H278        C303   1.082       .  S
N279        N300   1.319       .  A
N280        N298   1.324       .  A
N280        N285   1.327       .  A
C281        N285   1.353       .  A
C281        C309   1.444       .  S
C281        C560   1.461       .  S
N282        C297   1.343       .  A
N282       Co304   2.106       .  S
C283        N311   1.338       .  A
C283        C286   1.456       .  S
C283        H317   1.082       .  S
C286        N307   1.352       .  A
C286        C473   1.472       .  S
N287        N293   1.318       .  A
N288        C314   1.330       .  A
N288        N290   1.317       .  A
N288       Co304   2.059       .  S
N289        C303   1.345       .  A
N290        N318   1.328       .  A
N290       Co308   2.092       .  S
H291        C314   1.082       .  S
H292        C309   1.082       .  S
N294       Co308   2.091       .  S
N295        N307   1.325       .  A
N295        N311   1.320       .  A
N295       Co304   2.098       .  S
C296        N300   1.342       .  A
C296        C310   1.467       .  S
C296        C548   1.472       .  S
C297        C316   1.468       .  S
C297        H301   1.082       .  S
N298        C309   1.332       .  A
N298       Co308   2.057       .  S
C302        N318   1.356       .  A
C302        C314   1.458       .  S
C302        C461   1.486       .  S
Co304      Cl315   2.418       .  S
N305        C316   1.343       .  A
C306        C449   1.484       .  S
Co308      Cl315   2.464       .  S
C316        C737   1.466       .  S
C319        N337   1.336       .  A
C319        C356   1.485       .  S
C319        C797   1.491   1_545  S
N320        N337   1.315       .  A
N320        N342   1.323       .  A
N320       Co357   2.051       .  S
C321        N346   1.341       .  A
C321        C359   1.458       .  S
C321        H366   1.081       .  S
H322        C363   1.082       .  S
C323        N347   1.349   1_655  A
C323        C327   1.471       .  S
C323        H352   1.081       .  S
Co324       N342   2.151       .  S
Co324       N332   2.086       .  S
Co324       N364   2.072       .  S
Co324       N340   2.136       .  S
Co324      Cl368   2.448       .  S
N325        C363   1.340       .  A
N325        N332   1.318       .  A
N325       Co326   2.084       .  S
Co326       N329   2.055       .  S
Co326       N346   2.080       .  S
Co326       N333   2.094       .  S
Co326      Cl368   2.463       .  S
C327        N365   1.340       .  A
C327        C536   1.476       .  S
N328        N335   1.312       .  A
N328        N358   1.314       .  A
N328       Co361   2.054       .  S
N329        N347   1.321       .  A
N329        N365   1.319   1_455  A
N330        C359   1.359       .  A
N330        N340   1.330       .  A
H331        C356   1.081       .  S
N332        N353   1.329       .  A
N333        N351   1.316       .  A
N333        N338   1.328   1_455  A
C334        N338   1.357       .  A
C334        C362   1.457       .  S
C334        C500   1.494       .  S
N335        C350   1.348       .  A
N335       Co357   2.083       .  S
C336        N364   1.336       .  A
C336        C339   1.457       .  S
C336        H370   1.081       .  S
C339        N360   1.356       .  A
C339        C512   1.490       .  S
N340        N346   1.324       .  A
N341        C367   1.339       .  A
N341        N343   1.323       .  A
N341       Co357   2.076       .  S
N342        C356   1.360       .  A
N343        N371   1.328       .  A
N343       Co361   2.116       .  S
H344        C367   1.082       .  S
H345        C362   1.082       .  S
N347       Co361   2.118       .  S
N348        N360   1.328       .  A
N348        N364   1.318       .  A
N348       Co357   2.093       .  S
C349        N353   1.353       .  A
C349        C363   1.451       .  S
C349        C428   1.476       .  S
C350        C369   1.472   1_545  S
C350        H354   1.080   1_545  S
N351        C362   1.335   1_455  A
N351       Co361   2.062       .  S
C355        N371   1.354       .  A
C355        C367   1.456       .  S
C355        C437   1.479       .  S
Co357      Cl368   2.464       .  S
N358        C369   1.347   1_545  A
C359        C788   1.496       .  S
Co361      Cl368   2.421       .  S
C369        C596   1.484       .  S
C372        N390   1.333       .  A
C372        C409   1.491       .  S
C372        C701   1.498   1_545  S
N373        N390   1.310       .  A
N373        N395   1.320       .  A
N373       Co410   2.039       .  S
C374        N399   1.337       .  A
C374        C412   1.458       .  S
C374        H419   1.081       .  S
H375        C416   1.082       .  S
C376        N400   1.346       .  A
C376        C380   1.467       .  S
C376        H405   1.081       .  S
Co377       N395   2.149       .  S
Co377       N385   2.093       .  S
Co377       N417   2.085       .  S
Co377       N393   2.139       .  S
Co377      Cl421   2.452       .  S
N378        C416   1.340       .  A
N378        N385   1.319       .  A
N378       Co379   2.083       .  S
Co379       N382   2.057       .  S
Co379       N399   2.072       .  S
Co379       N386   2.090       .  S
Co379      Cl421   2.454       .  S
C380        N418   1.341       .  A
C380        C605   1.469       .  S
N381        N388   1.314       .  A
N381        N411   1.320       .  A
N381       Co414   2.063       .  S
N382        N400   1.321   1_455  A
N382        N418   1.319   1_455  A
N383        C412   1.362       .  A
N383        N393   1.332       .  A
H384        C409   1.081       .  S
N385        N406   1.329       .  A
N386        N404   1.317       .  A
N386        N391   1.327   1_455  A
C387        N391   1.356       .  A
C387        C415   1.456       .  S
C387        C452   1.479       .  S
N388        C403   1.339       .  A
N388       Co410   2.075       .  S
C389        N417   1.336       .  A
C389        C392   1.459       .  S
C389        H423   1.081       .  S
C392        N413   1.350       .  A
C392        C464   1.477       .  S
N393        N399   1.323       .  A
N394        C420   1.338       .  A
N394        N396   1.321       .  A
N394       Co410   2.070       .  S
N395        C409   1.363       .  A
N396        N424   1.329       .  A
N396       Co414   2.112       .  S
H397        C420   1.082       .  S
H398        C415   1.081       .  S
N400       Co414   2.109   1_655  S
N401        N413   1.326       .  A
N401        N417   1.319       .  A
N401       Co410   2.071       .  S
C402        N406   1.354       .  A
C402        C416   1.454       .  S
C402        C440   1.480       .  S
C403        C422   1.460   1_545  S
C403        H407   1.081   1_545  S
N404        C415   1.332   1_455  A
N404       Co414   2.063       .  S
C408        N424   1.354       .  A
C408        C420   1.453       .  S
C408        C425   1.476       .  S
Co410      Cl421   2.445       .  S
N411        C422   1.350   1_545  A
C412        C692   1.501       .  S
Co414      Cl421   2.440       .  S
C422        C524   1.470       .  S
C425        C426   1.404       .  A
C425        C430   1.409       .  A
C426        H431   1.085       .  S
C426        C427   1.404       .  A
C427        C428   1.410       .  A
C427        C434   1.444       .  S
C428        C429   1.403       .  A
C429        H432   1.084       .  S
C429        C430   1.403       .  A
C430        C433   1.444       .  S
C433        N435   1.157       .  T
C434        N436   1.157       .  T
C437        C438   1.406       .  A
C437        C442   1.408       .  A
C438        H443   1.085       .  S
C438        C439   1.405   1_554  A
C439        C440   1.410       .  A
C439        C446   1.444       .  S
C440        C441   1.405       .  A
C441        H444   1.084       .  S
C441        C442   1.403   1_556  A
C442        C445   1.443       .  S
C445        N447   1.157       .  T
C446        N448   1.157       .  T
C449        C450   1.405       .  A
C449        C454   1.414       .  A
C450        H455   1.083       .  S
C450        C451   1.397       .  A
C451        C452   1.410       .  A
C451        C458   1.445       .  S
C452        C453   1.405       .  A
C453        H456   1.084       .  S
C453        C454   1.404       .  A
C454        C457   1.444       .  S
C457        N459   1.157       .  T
C458        N460   1.157       .  T
C461        C462   1.409       .  A
C461        C466   1.409       .  A
C462        H467   1.084       .  S
C462        C463   1.393       .  A
C463        C464   1.407       .  A
C463        C470   1.446       .  S
C464        C465   1.408       .  A
C465        H468   1.084       .  S
C465        C466   1.408       .  A
C466        C469   1.443       .  S
C469        N471   1.157       .  T
C470        N472   1.157       .  T
C473        C474   1.403       .  A
C473        C478   1.408       .  A
C474        H479   1.085       .  S
C474        C475   1.401       .  A
C475        C476   1.412       .  A
C475        C482   1.444       .  S
C476        C477   1.404       .  A
C477        H480   1.084       .  S
C477        C478   1.401       .  A
C478        C481   1.444       .  S
C481        N483   1.157       .  T
C482        N484   1.157       .  T
C485        C486   1.403       .  A
C485        C490   1.410       .  A
C486        H491   1.085       .  S
C486        C487   1.398       .  A
C487        C488   1.415       .  A
C487        C494   1.444       .  S
C488        C489   1.408       .  A
C489        H492   1.083       .  S
C489        C490   1.405       .  A
C490        C493   1.443       .  S
C493        N495   1.157       .  T
C494        N496   1.157       .  T
C497        C498   1.402       .  A
C497        C502   1.406       .  A
C498        H503   1.085       .  S
C498        C499   1.405       .  A
C499        C500   1.418       .  A
C499        C506   1.443       .  S
C500        C501   1.409       .  A
C501        H504   1.085       .  S
C501        C502   1.402       .  A
C502        C505   1.444       .  S
C505        N507   1.157       .  T
C506        N508   1.157       .  T
C509        C510   1.403       .  A
C509        C514   1.406       .  A
C510        H515   1.086       .  S
C510        C511   1.403       .  A
C511        C512   1.416       .  A
C511        C518   1.444       .  S
C512        C513   1.410       .  A
C513        H516   1.083       .  S
C513        C514   1.400       .  A
C514        C517   1.444       .  S
C517        N519   1.157       .  T
C518        N520   1.157       .  T
C521        C522   1.400       .  A
C521        C526   1.403   1_655  A
C522        H527   1.086       .  S
C522        C523   1.393       .  A
C523        C524   1.410   1_655  A
C523        C530   1.444       .  S
C524        C525   1.407       .  A
C525        H528   1.084       .  S
C525        C526   1.399       .  A
C526        C529   1.443       .  S
C529        N531   1.157       .  T
C530        N532   1.157       .  T
C533        C534   1.403       .  A
C533        C538   1.408       .  A
C534        H539   1.084   1_545  S
C534        C535   1.403       .  A
C535        C536   1.411       .  A
C535        C542   1.443       .  S
C536        C537   1.404       .  A
C537        H540   1.085       .  S
C537        C538   1.400       .  A
C538        C541   1.445       .  S
C541        N543   1.157       .  T
C542        N544   1.157   1_645  T
C545        C546   1.405       .  A
C545        C550   1.419       .  A
C546        H551   1.085       .  S
C546        C547   1.399       .  A
C547        C548   1.410       .  A
C547        C554   1.445       .  S
C548        C549   1.399       .  A
C549        H552   1.085       .  S
C549        C550   1.403       .  A
C550        C553   1.444       .  S
C553        N555   1.158       .  T
C554        N556   1.157       .  T
C557        C558   1.407       .  A
C557        C562   1.412       .  A
C558        H563   1.084       .  S
C558        C559   1.399       .  A
C559        C560   1.406       .  A
C559        C566   1.444       .  S
C560        C561   1.398       .  A
C561        H564   1.086       .  S
C561        C562   1.397       .  A
C562        C565   1.441       .  S
C565        N567   1.156       .  T
C566        N568   1.157       .  T
C569        C570   1.406       .  A
C569        C574   1.409       .  A
C570        H575   1.085       .  S
C570        C571   1.399       .  A
C571        C572   1.406       .  A
C571        C578   1.442       .  S
C572        C573   1.406       .  A
C573        H576   1.084       .  S
C573        C574   1.401       .  A
C574        C577   1.444       .  S
C577        N579   1.157       .  T
C578        N580   1.156       .  T
C581        C582   1.404       .  A
C581        C586   1.410       .  A
C582        H587   1.083       .  S
C582        C583   1.399       .  A
C583        C584   1.411       .  A
C583        C590   1.445       .  S
C584        C585   1.404       .  A
C585        H588   1.085       .  S
C585        C586   1.400       .  A
C586        C589   1.442       .  S
C589        N591   1.156       .  T
C590        N592   1.158       .  T
C593        C594   1.403   1_655  A
C593        C598   1.412       .  A
C594        H599   1.084       .  S
C594        C595   1.409       .  A
C595        C596   1.416       .  A
C595        C602   1.441       .  S
C596        C597   1.402   1_455  A
C597        H600   1.087       .  S
C597        C598   1.388       .  A
C598        C601   1.442       .  S
C601        N603   1.155       .  T
C602        N604   1.157       .  T
C605        C606   1.404       .  A
C605        C610   1.410       .  A
C606        H611   1.085       .  S
C606        C607   1.398       .  A
C607        C608   1.406       .  A
C607        C614   1.445       .  S
C608        C609   1.402       .  A
C609        H612   1.085   1_545  S
C609        C610   1.400       .  A
C610        C613   1.443       .  S
C613        N615   1.157   1_645  T
C614        N616   1.157       .  T
C617        C618   1.405       .  A
C617        C622   1.407       .  A
C618        H623   1.085       .  S
C618        C619   1.399       .  A
C619        C620   1.409       .  A
C619        C626   1.441       .  S
C620        C621   1.406       .  A
C621        H624   1.084   1_554  S
C621        C622   1.396       .  A
C622        C625   1.445   1_554  S
C625        N627   1.157       .  T
C626        N628   1.156       .  T
C629        C630   1.397       .  A
C629        C634   1.414       .  A
C630        H635   1.085   1_554  S
C630        C631   1.397       .  A
C631        C632   1.418       .  A
C631        C638   1.445   1_554  S
C632        C633   1.398       .  A
C633        H636   1.085       .  S
C633        C634   1.396       .  A
C634        C637   1.445       .  S
C637        N639   1.157       .  T
C638        N640   1.157       .  T
C641        C642   1.403   1_554  A
C641        C646   1.406       .  A
C642        H647   1.086       .  S
C642        C643   1.398       .  A
C643        C644   1.408       .  A
C643        C650   1.445       .  S
C644        C645   1.406       .  A
C645        H648   1.085       .  S
C645        C646   1.401   1_556  A
C646        C649   1.443       .  S
C649        N651   1.157       .  T
C650        N652   1.157       .  T
C653        C654   1.406       .  A
C653        C658   1.404       .  A
C654        H659   1.085       .  S
C654        C655   1.406       .  A
C655        C656   1.411       .  A
C655        C662   1.443       .  S
C656        C657   1.408       .  A
C657        H660   1.083       .  S
C657        C658   1.391       .  A
C658        C661   1.446       .  S
C661        N663   1.157       .  T
C662        N664   1.157       .  T
C665        C666   1.399       .  A
C665        C670   1.410       .  A
C666        H671   1.085       .  S
C666        C667   1.400       .  A
C667        C668   1.417       .  A
C667        C674   1.444       .  S
C668        C669   1.402       .  A
C669        H672   1.086       .  S
C669        C670   1.401       .  A
C670        C673   1.444   1_556  S
C673        N675   1.157       .  T
C674        N676   1.157       .  T
C677        C678   1.397       .  A
C677        C682   1.413       .  A
C678        H683   1.085       .  S
C678        C679   1.404   1_655  A
C679        C680   1.424       .  A
C679        C686   1.443       .  S
C680        C681   1.405       .  A
C681        H684   1.082       .  S
C681        C682   1.403   1_455  A
C682        C685   1.445   1_556  S
C685        N687   1.157       .  T
C686        N688   1.157       .  T
C689        C690   1.410       .  A
C689        C694   1.406       .  A
C690        H695   1.085       .  S
C690        C691   1.406       .  A
C691        C692   1.413       .  A
C691        C698   1.444       .  S
C692        C693   1.414       .  A
C693        H696   1.083       .  S
C693        C694   1.409       .  A
C694        C697   1.443       .  S
C697        N699   1.157       .  T
C698        N700   1.157       .  T
C701        C702   1.407       .  A
C701        C706   1.428       .  A
C702        H707   1.084       .  S
C702        C703   1.414       .  A
C703        C704   1.414       .  A
C703        C710   1.442       .  S
C704        C705   1.391       .  A
C705        H708   1.087       .  S
C705        C706   1.394       .  A
C706        C709   1.447       .  S
C709        N711   1.158       .  T
C710        N712   1.157       .  T
C713        C714   1.401       .  A
C713        C718   1.419       .  A
C714        H719   1.084       .  S
C714        C715   1.402       .  A
C715        C716   1.420       .  A
C715        C722   1.444       .  S
C716        C717   1.401       .  A
C717        H720   1.084       .  S
C717        C718   1.399       .  A
C718        C721   1.445       .  S
C721        N723   1.158       .  T
C722        N724   1.157       .  T
C725        C726   1.399       .  A
C725        C730   1.413       .  A
C726        H731   1.085       .  S
C726        C727   1.398       .  A
C727        C728   1.415       .  A
C727        C734   1.444       .  S
C728        C729   1.400       .  A
C729        H732   1.085       .  S
C729        C730   1.398       .  A
C730        C733   1.444       .  S
C733        N735   1.157       .  T
C734        N736   1.157       .  T
C737        C738   1.394       .  A
C737        C742   1.413       .  A
C738        H743   1.085       .  S
C738        C739   1.392       .  A
C739        C740   1.419       .  A
C739        C746   1.443       .  S
C740        C741   1.400       .  A
C741        H744   1.085       .  S
C741        C742   1.401       .  A
C742        C745   1.444       .  S
C745        N747   1.157       .  T
C746        N748   1.156       .  T
C749        C750   1.406       .  A
C749        C754   1.406       .  A
C750        H755   1.085       .  S
C750        C751   1.403       .  A
C751        C752   1.410       .  A
C751        C758   1.443       .  S
C752        C753   1.406       .  A
C753        H756   1.086       .  S
C753        C754   1.398       .  A
C754        C757   1.443       .  S
C757        N759   1.157       .  T
C758        N760   1.157       .  T
C761        C762   1.400       .  A
C761        C766   1.419       .  A
C762        H767   1.085       .  S
C762        C763   1.397       .  A
C763        C764   1.411       .  A
C763        C770   1.440       .  S
C764        C765   1.399       .  A
C765        H768   1.085       .  S
C765        C766   1.405       .  A
C766        C769   1.443       .  S
C769        N771   1.158       .  T
C770        N772   1.155       .  T
C773        C774   1.404       .  A
C773        C778   1.426   1_655  A
C774        H779   1.083       .  S
C774        C775   1.406   1_655  A
C775        C776   1.417       .  A
C775        C782   1.444       .  S
C776        C777   1.391       .  A
C777        H780   1.086       .  S
C777        C778   1.396       .  A
C778        C781   1.440       .  S
C781        N783   1.156       .  T
C782        N784   1.157       .  T
C785        C786   1.411       .  A
C785        C790   1.408       .  A
C786        H791   1.085       .  S
C786        C787   1.401       .  A
C787        C788   1.410       .  A
C787        C794   1.445       .  S
C788        C789   1.413       .  A
C789        H792   1.084       .  S
C789        C790   1.413       .  A
C790        C793   1.442       .  S
C793        N795   1.157       .  T
C794        N796   1.157       .  T
C797        C798   1.407       .  A
C797        C802   1.417       .  A
C798        H803   1.084       .  S
C798        C799   1.416       .  A
C799        C800   1.415       .  A
C799        C806   1.442       .  S
C800        C801   1.400       .  A
C801        H804   1.086       .  S
C801        C802   1.398       .  A
C802        C805   1.446       .  S
C805        N807   1.157       .  T
C806        N808   1.157       .  T
