geometry optimzed in LAMMPS
_audit_creation_date              2020-11-30 
_audit_creation_method            'lammps2cif' 
_symmetry_space_group_name_H-M    'P1' 
_symmetry_Int_Tables_number       1 
_symmetry_cell_setting            triclinic 
loop_ 
_symmetry_equiv_pos_as_xyz 
  x,y,z 
_cell_length_a                    45.22409378 
_cell_length_b                    45.253009753024074 
_cell_length_c                    33.921608336141 
_cell_angle_alpha                 90.21084537453733 
_cell_angle_beta                  89.7425120823455 
_cell_angle_gamma                 89.954223458833 
loop_ 
_atom_site_label 
_atom_site_type_symbol 
_atom_site_fract_x 
_atom_site_fract_y 
_atom_site_fract_z 
_atom_site_charge 
C1          C  0.36590567  0.37288656  0.99893721     0.80200
N2          N  0.35559914  0.36268097  0.29608751    -0.78100
C3          C  0.33419203  0.34152084  0.29492458     0.82700
N4          N  0.32309932  0.33052846  0.32907018    -0.78000
C5          C  0.33351741  0.34028197  0.03193693     0.82800
N6          N  0.35458276  0.36155738  0.03286812    -0.79800
C7          C  0.15504369  0.37153130  0.99696892     0.80200
N8          N  0.16522769  0.36024113  0.29618557    -0.78100
C9          C  0.18598728  0.33858296  0.29613439     0.82700
N10         N  0.19662174  0.32819395  0.33073379    -0.78000
C11         C  0.18642974  0.33933339  0.03191773     0.82800
N12         N  0.16566795  0.36105541  0.03171668    -0.79800
C13         C  0.36711971  0.16190917  0.99652953     0.80200
N14         N  0.35603309  0.17191074  0.29451728    -0.78100
C15         C  0.33459320  0.19294349  0.29409356     0.82700
N16         N  0.32402739  0.20395866  0.99541618    -0.78000
C17         C  0.33416781  0.19363005  0.03030692     0.82800
N18         N  0.35558427  0.17263649  0.03081035    -0.79800
N19         N  0.01090013  0.47097858  0.33257444    -0.36600
N20         N  0.46504528  0.01687159  0.33572074    -0.57200
N21         N  0.01097414  0.06181195  0.32467135    -0.36600
N22         N  0.05678942  0.01621505  0.32888790    -0.57200
C23         C  0.48690357  0.45488582  0.34250064     0.27000
C24         C  0.03526200  0.45439286  0.33926388     0.27000
C25         C  0.48685785  0.07917503  0.33292167     0.27000
C26         C  0.03531611  0.07882858  0.32947246     0.27000
C27         C  0.44758198  0.49279988  0.33260376     0.35600
C28         C  0.44751158  0.04058831  0.32938210     0.35600
C29         C  0.07378280  0.49213600  0.32361354     0.35600
C30         C  0.07400454  0.03984236  0.32082684     0.35600
C31         C  0.49624151  0.42768854  0.35642167    -0.21900
C32         C  0.02677920  0.42699578  0.35362053    -0.21900
C33         C  0.49619182  0.10741634  0.34283223    -0.21900
C34         C  0.02675849  0.10736563  0.33931702    -0.21900
C35         C  0.41854850  0.00128713  0.32583570    -0.23000
C36         C  0.41858258  0.03155695  0.32346244    -0.23000
C37         C  0.10242993  0.00042215  0.31332435    -0.23000
C38         C  0.10242792  0.03069677  0.31139518    -0.23000
C39         C  0.45696177  0.46328857  0.33819139    -0.18300
C40         C  0.06484996  0.46272358  0.33109873    -0.18300
C41         C  0.06504879  0.06966108  0.32429963    -0.18300
C42         C  0.45691347  0.07039089  0.33061062    -0.18300
H43         H  0.48255679  0.40975482  0.36700711     0.14600
H44         H  0.04099604  0.40872160  0.36152930     0.14600
H45         H  0.48300792  0.12568203  0.02120230     0.14600
H46         H  0.04076281  0.12582555  0.01065297     0.14600
H47         H  0.39955952  0.48717554  0.32175406     0.12900
H48         H  0.39947037  0.04533639  0.31801862     0.12900
H49         H  0.12089415  0.48633724  0.30660459     0.12900
H50         H  0.12124582  0.04442235  0.30407836     0.12900
H51         H  0.01041680  0.49163967  0.31955664     0.26100
H52         H  0.01059415  0.04002815  0.31524880     0.26100
C53         C  0.15546980  0.16003285  0.99438303     0.80200
N54         N  0.16689079  0.17133902  0.29488373    -0.78100
C55         C  0.18798007  0.19255469  0.29544955     0.82700
N56         N  0.19825216  0.20245540  0.99676749    -0.78000
C57         C  0.18692319  0.19159967  0.03086218     0.82800
N58         N  0.16557580  0.17043762  0.02964182    -0.79800
N59         N  0.29461992  0.32203326  0.20930682    -0.06100
N60         N  0.29838146  0.34040789  0.23928365    -0.58200
N61         N  0.31510810  0.30128740  0.11795456    -0.05800
N62         N  0.33282570  0.30457560  0.08724294    -0.60400
N63         N  0.29440109  0.32173069  0.11811099    -0.05400
N64         N  0.29758693  0.33940573  0.08748662    -0.58200
N65         N  0.31537633  0.30161324  0.20910851    -0.05100
N66         N  0.33367469  0.30570593  0.23894169    -0.60700
C67         C  0.32299628  0.33014860  0.25719128     0.96000
C68         C  0.32164072  0.32843299  0.06870627     0.95800
N69         N  0.29506989  0.21131470  0.11701606    -0.06300
N70         N  0.29839291  0.19382977  0.08604494    -0.58800
N71         N  0.31569484  0.23177769  0.20829718    -0.04400
N72         N  0.33365842  0.22841475  0.23854044    -0.60100
N73         N  0.29537438  0.21096704  0.20815804    -0.06300
N74         N  0.29907751  0.19301503  0.23838380    -0.59100
N75         N  0.31543294  0.23208393  0.11713546    -0.04100
N76         N  0.33303028  0.22919313  0.08617895    -0.60200
Mn77       Mn  0.31641932  0.26665933  0.16321315     1.18400
C78         C  0.32216759  0.20523949  0.06728508     0.98100
C79         C  0.32314755  0.20406705  0.25674900     0.98800
N80         N  0.22496684  0.32113195  0.11831521    -0.06400
N81         N  0.22160812  0.33896119  0.08791074    -0.62700
N82         N  0.20445997  0.30014192  0.20924201    -0.05200
N83         N  0.18676768  0.30309175  0.24010775    -0.63300
N84         N  0.22486389  0.32087726  0.20938124    -0.05900
N85         N  0.22145166  0.33841266  0.24025517    -0.62900
N86         N  0.20456909  0.30038889  0.11804547    -0.04800
N87         N  0.18691720  0.30366894  0.08743545    -0.63600
Mn88       Mn  0.25965414  0.32248834  0.16383531     1.10700
C89         C  0.19772009  0.32790010  0.06919512     0.99400
C90         C  0.19759644  0.32709967  0.25891209     0.99400
N91         N  0.22601987  0.21065688  0.20854398    -0.05900
N92         N  0.22335574  0.19330482  0.23954195    -0.61300
N93         N  0.20483578  0.23073679  0.11751750    -0.05200
N94         N  0.18691943  0.22702222  0.08720819    -0.58000
N95         N  0.22559571  0.21033309  0.11736598    -0.06500
N96         N  0.22224407  0.19233657  0.08692510    -0.60800
N97         N  0.20514740  0.23093947  0.20867145    -0.05500
N98         N  0.18778203  0.22781492  0.23975945    -0.58000
Mn99       Mn  0.26052549  0.20974987  0.16276461     1.20200
Mn100      Mn  0.20365042  0.26555805  0.16331413     1.10100
Cl101      Cl  0.26005468  0.26612118  0.16334983    -0.86000
C102        C  0.19943092  0.20428012  0.25851843     0.96400
C103        C  0.19789957  0.20285019  0.06867985     0.96200
C104        C  0.11633947  0.13128267  0.95735955     0.23600
C105        C  0.13215161  0.13668411  0.99259844    -0.24500
C106        C  0.12555531  0.11922239  0.02590336     0.18500
C107        C  0.10373379  0.09734234  0.02409937     0.23500
C108        C  0.08793570  0.09245332  0.98921197    -0.24500
C109        C  0.09403475  0.11016513  0.29200598     0.18400
F110        F  0.07833766  0.10595063  0.25841989    -0.14400
F111        F  0.12030598  0.14861140  0.26036877    -0.16800
F112        F  0.09790693  0.08082905  0.05654739    -0.16800
F113        F  0.14055003  0.12279222  0.06015643    -0.14400
C114        C  0.39127896  0.11812801  0.02847346     0.23600
C115        C  0.39034414  0.13869093  0.99737607    -0.24500
C116        C  0.40822441  0.13336982  0.29641410     0.18500
C117        C  0.43010833  0.11152545  0.29697587     0.23500
C118        C  0.43414501  0.09400617  0.99888411    -0.24500
C119        C  0.41301415  0.09611724  0.02926400     0.18400
F120        F  0.41347237  0.07680907  0.05979879    -0.14400
F121        F  0.37073908  0.11884034  0.05777821    -0.16800
F122        F  0.44760191  0.10751303  0.26475797    -0.16900
F123        F  0.40503086  0.14967277  0.26319120    -0.14400
C124        C  0.10879789  0.43860281  0.02536882     0.23600
C125        C  0.08792409  0.43928507  0.33118212    -0.24500
C126        C  0.08884355  0.41805816  0.30093540     0.18500
C127        C  0.11079639  0.39626651  0.30054879     0.23500
C128        C  0.13191019  0.39483417  0.99647074    -0.24500
C129        C  0.13044463  0.41647438  0.02641775     0.18400
F130        F  0.15024417  0.41658213  0.05638312    -0.14400
F131        F  0.10833541  0.45844066  0.39105680    -0.16800
F132        F  0.11088399  0.37458584  0.93722095    -0.16800
F133        F  0.06835114  0.41843799  0.27180956    -0.14400
C134        C  0.41841742  0.43207366  0.03854679     0.23600
C135        C  0.43426500  0.43954736  0.33743622    -0.24500
C136        C  0.43022707  0.42297432  0.30289583     0.18500
C137        C  0.40808839  0.40144747  0.30077971     0.23500
C138        C  0.38943342  0.39613406  0.00074001    -0.24500
C139        C  0.39590309  0.41084517  0.03663763     0.18400
F140        F  0.38023255  0.40516612  0.06999085    -0.14400
F141        F  0.42432574  0.44555673  0.07346260    -0.16800
F142        F  0.40528624  0.38573566  0.26685870    -0.16800
F143        F  0.44768150  0.42795556  0.27094425    -0.14400
C144        C  0.36591539  0.37289093  0.33138967     0.80200
N145        N  0.35529766  0.36254627  0.62944845    -0.78100
C146        C  0.33414225  0.34116451  0.62854916     0.82700
N147        N  0.32336811  0.33004519  0.66282725    -0.78000
C148        C  0.33325944  0.34054655  0.36419484     0.82800
N149        N  0.35456674  0.36154738  0.36525556    -0.79800
C150        C  0.15499154  0.37166638  0.33079006     0.80200
N151        N  0.16584508  0.36076441  0.62999740    -0.78100
C152        C  0.18693646  0.33942453  0.62954357     0.82700
N153        N  0.19779510  0.32892713  0.66397094    -0.78000
C154        C  0.18654455  0.33947219  0.36536830     0.82800
N155        N  0.16585609  0.36121166  0.36537764    -0.79800
C156        C  0.36690543  0.16177800  0.32933249     0.80200
N157        N  0.35690858  0.17283048  0.62741615    -0.78100
C158        C  0.33566592  0.19406649  0.62707151     0.82700
N159        N  0.32393203  0.20401642  0.32852058    -0.78000
C160        C  0.33461645  0.19406793  0.36330116     0.82800
N161        N  0.35598033  0.17302580  0.36366392    -0.79800
N162        N  0.01105529  0.47089868  0.66594513    -0.36600
N163        N  0.46533951  0.01702179  0.66998001    -0.57200
N164        N  0.01119025  0.06202508  0.65855611    -0.36600
N165        N  0.05692620  0.01636457  0.66061962    -0.57200
C166        C  0.48696332  0.45452088  0.67407293     0.27000
C167        C  0.03545779  0.45439304  0.67274890     0.27000
C168        C  0.48701242  0.07927220  0.66627794     0.27000
C169        C  0.03559041  0.07904987  0.66275249     0.27000
C170        C  0.44759180  0.49292019  0.66606466     0.35600
C171        C  0.44771107  0.04064474  0.66338253     0.35600
C172        C  0.07395907  0.49204161  0.65651228     0.35600
C173        C  0.07414471  0.04005824  0.65284283     0.35600
C174        C  0.49617893  0.42645648  0.68478423    -0.21900
C175        C  0.02706626  0.42721968  0.68794865    -0.21900
C176        C  0.49650959  0.10749668  0.67602789    -0.21900
C177        C  0.02714594  0.10758880  0.67279895    -0.21900
C178        C  0.41900450  0.00115735  0.65957102    -0.23000
C179        C  0.41889077  0.03141057  0.65703948    -0.23000
C180        C  0.10247100  0.00062390  0.64453364    -0.23000
C181        C  0.10250663  0.03093063  0.64304219    -0.23000
C182        C  0.45702190  0.46328759  0.67057040    -0.18300
C183        C  0.06501046  0.46261948  0.66414917    -0.18300
C184        C  0.06526485  0.06989069  0.65691204    -0.18300
C185        C  0.45698907  0.07052664  0.66449862    -0.18300
H186        H  0.48243093  0.40786642  0.69291254     0.14600
H187        H  0.04133492  0.40908398  0.69624303     0.14600
H188        H  0.48254705  0.12619539  0.35078164     0.14600
H189        H  0.04091661  0.12618460  0.34486197     0.14600
H190        H  0.39954893  0.48730082  0.65531443     0.12900
H191        H  0.39974579  0.04501753  0.65109912     0.12900
H192        H  0.12113299  0.48623229  0.63987947     0.12900
H193        H  0.12132777  0.04468884  0.63585450     0.12900
H194        H  0.01049528  0.49137259  0.65241371     0.26100
H195        H  0.01064155  0.04023256  0.64918506     0.26100
C196        C  0.15584592  0.16017846  0.32901910     0.80200
N197        N  0.16742996  0.17156036  0.62754571    -0.78100
C198        C  0.18876901  0.19255136  0.62834298     0.82700
N199        N  0.19832532  0.20287219  0.33031084    -0.78000
C200        C  0.18751813  0.19198474  0.36466008     0.82800
N201        N  0.16630925  0.17068261  0.36401376    -0.79800
N202        N  0.29514559  0.32246815  0.54218715    -0.06100
N203        N  0.29851161  0.34037825  0.57272942    -0.58200
N204        N  0.31551083  0.30186788  0.45060915    -0.05800
N205        N  0.33297001  0.30502402  0.41962074    -0.60400
N206        N  0.29468973  0.32219121  0.45079109    -0.05400
N207        N  0.29750352  0.33962666  0.41986752    -0.58200
N208        N  0.31596051  0.30211270  0.54184978    -0.05100
N209        N  0.33391038  0.30576819  0.57213800    -0.60700
C210        C  0.32290911  0.32984951  0.59085877     0.96000
C211        C  0.32145324  0.32862953  0.40089928     0.95800
N212        N  0.29586445  0.21197591  0.45004248    -0.06300
N213        N  0.29914816  0.19438777  0.41919543    -0.58800
N214        N  0.31669343  0.23255490  0.54103390    -0.04400
N215        N  0.33467006  0.22937330  0.57129831    -0.60100
N216        N  0.29638758  0.21173838  0.54109679    -0.06300
N217        N  0.30011335  0.19394264  0.57146591    -0.59100
N218        N  0.31618444  0.23277728  0.44994339    -0.04100
N219        N  0.33373193  0.22981630  0.41894925    -0.60200
Mn220      Mn  0.31714241  0.26734486  0.49590725     1.18400
C221        C  0.32286295  0.20576061  0.40029831     0.98100
C222        C  0.32416305  0.20512259  0.58973451     0.98800
N223        N  0.22539036  0.32163147  0.45152442    -0.06400
N224        N  0.22192228  0.33936083  0.42105097    -0.62700
N225        N  0.20517002  0.30081246  0.54260955    -0.05200
N226        N  0.18751819  0.30388806  0.57350317    -0.63300
N227        N  0.22551723  0.32159955  0.54251620    -0.05900
N228        N  0.22211967  0.33928362  0.57325367    -0.62900
N229        N  0.20503704  0.30085413  0.45147244    -0.04800
N230        N  0.18729063  0.30399156  0.42095292    -0.63600
Mn231      Mn  0.26017725  0.32304915  0.49679458     1.10700
C232        C  0.19802399  0.32815758  0.40252369     0.99400
C233        C  0.19830627  0.32802816  0.59208198     0.99400
N234        N  0.22702143  0.21120903  0.54178894    -0.05900
N235        N  0.22430245  0.19366442  0.57258726    -0.61300
N236        N  0.20567716  0.23131631  0.45094070    -0.05200
N237        N  0.18772405  0.22757441  0.42069414    -0.58000
N238        N  0.22650009  0.21097619  0.45068325    -0.06500
N239        N  0.22316211  0.19298758  0.42024745    -0.60800
N240        N  0.20612144  0.23146496  0.54204608    -0.05500
N241        N  0.18868210  0.22812599  0.57301451    -0.58000
Mn242      Mn  0.26145030  0.21040337  0.49590693     1.20200
Mn243      Mn  0.20439608  0.26609941  0.49675152     1.10100
Cl244      Cl  0.26077234  0.26672683  0.49640208    -0.86000
C245        C  0.20030701  0.20448824  0.59156825     0.96400
C246        C  0.19876408  0.20345970  0.40212413     0.96200
C247        C  0.11589074  0.13202191  0.29314081     0.23600
C248        C  0.13262345  0.13682909  0.32773659    -0.24500
C249        C  0.12706687  0.11877807  0.36077984     0.18500
C250        C  0.10523855  0.09691217  0.35939300     0.23500
C251        C  0.08849240  0.09262935  0.32516097    -0.24500
C252        C  0.09392167  0.11077660  0.62477361     0.18400
F253        F  0.07772730  0.10701249  0.59151691    -0.14400
F254        F  0.12000109  0.14948070  0.59328463    -0.16800
F255        F  0.10037984  0.07977806  0.39154291    -0.16800
F256        F  0.14312171  0.12173525  0.39426973    -0.14400
C257        C  0.39517193  0.12145671  0.36404677     0.23600
C258        C  0.39032407  0.13861654  0.32993043    -0.24500
C259        C  0.41106230  0.13624114  0.63183247     0.18500
C260        C  0.43279093  0.11423717  0.63266131     0.23500
C261        C  0.43405190  0.09396172  0.33050235    -0.24500
C262        C  0.41665780  0.09920026  0.36410323     0.18400
F263        F  0.42074345  0.08285196  0.39712807    -0.14400
F264        F  0.37891250  0.12578133  0.39731270    -0.16800
F265        F  0.45286372  0.11262199  0.60283595    -0.16900
F266        F  0.41077859  0.15535058  0.60107553    -0.14400
C267        C  0.10900822  0.43822539  0.36139027     0.23600
C268        C  0.08806786  0.43911848  0.66463556    -0.24500
C269        C  0.08873118  0.41731255  0.63509860     0.18500
C270        C  0.11064945  0.39547657  0.63516058     0.23500
C271        C  0.13202715  0.39508233  0.33080906    -0.24500
C272        C  0.13082989  0.41629613  0.36130942     0.18400
F273        F  0.15110989  0.41621883  0.39070185    -0.14400
F274        F  0.10852263  0.45890070  0.72409984    -0.16800
F275        F  0.11073754  0.37586698  0.27109481    -0.16800
F276        F  0.06803863  0.41716011  0.60622016    -0.14400
C277        C  0.41611962  0.43414995  0.37023473     0.23600
C278        C  0.43413799  0.43975497  0.66954920    -0.24500
C279        C  0.42642835  0.42681540  0.63346220     0.18500
C280        C  0.40424463  0.40530846  0.63161399     0.23500
C281        C  0.38943585  0.39600077  0.33338936    -0.24500
C282        C  0.39384595  0.41268356  0.36828679     0.18400
F283        F  0.37625849  0.40880229  0.40040158    -0.14400
F284        F  0.41992393  0.44979050  0.40408116    -0.16800
F285        F  0.39777705  0.39337527  0.59592759    -0.16800
F286        F  0.44042978  0.43524320  0.59985122    -0.14400
C287        C  0.36578041  0.37290259  0.66454369     0.80200
N288        N  0.35570434  0.36239934  0.96372702    -0.78100
C289        C  0.33456840  0.34097273  0.96266049     0.82700
N290        N  0.32355496  0.32997498  0.99685221    -0.78000
C291        C  0.33365429  0.34020910  0.69783637     0.82800
N292        N  0.35474145  0.36145231  0.69855334    -0.79800
C293        C  0.15554012  0.37181110  0.66480019     0.80200
N294        N  0.16563371  0.36019928  0.96249098    -0.78100
C295        C  0.18645777  0.33861281  0.96263755     0.82700
N296        N  0.19680988  0.32816326  0.99735985    -0.78000
C297        C  0.18766857  0.33981637  0.69881909     0.82800
N298        N  0.16665675  0.36127402  0.69921347    -0.79800
C299        C  0.36737467  0.16232743  0.66223246     0.80200
N300        N  0.35690068  0.17245970  0.96160483    -0.78100
C301        C  0.33534577  0.19338443  0.96105084     0.82700
N302        N  0.32486136  0.20496578  0.66155763    -0.78000
C303        C  0.33522382  0.19464129  0.69634412     0.82800
N304        N  0.35634048  0.17335940  0.69661570    -0.79800
N305        N  0.01082269  0.47078885  0.99788623    -0.36600
N306        N  0.46552446  0.01671296  0.00436874    -0.57200
N307        N  0.01026485  0.06177739  0.99009782    -0.36600
N308        N  0.05613629  0.01600596  0.99179272    -0.57200
C309        C  0.48753141  0.45451542  0.00935539     0.27000
C310        C  0.03539178  0.45423565  0.00337962     0.27000
C311        C  0.48718923  0.07900929  0.00170641     0.27000
C312        C  0.03475672  0.07867805  0.99439890     0.27000
C313        C  0.44801431  0.49265732  0.00076794     0.35600
C314        C  0.44789909  0.04038270  0.99793201     0.35600
C315        C  0.07343309  0.49207238  0.98587055     0.35600
C316        C  0.07322898  0.03970824  0.98358650     0.35600
C317        C  0.49693421  0.42663251  0.02059879    -0.21900
C318        C  0.02732707  0.42683141  0.01817348    -0.21900
C319        C  0.49659426  0.10708546  0.01235641    -0.21900
C320        C  0.02645647  0.10710579  0.00519243    -0.21900
C321        C  0.41920013  0.00089051  0.99383995    -0.23000
C322        C  0.41909911  0.03114617  0.99142265    -0.23000
C323        C  0.10157918  0.00028195  0.97516635    -0.23000
C324        C  0.10152787  0.03059349  0.97342889    -0.23000
C325        C  0.45751881  0.46306904  0.00573980    -0.18300
C326        C  0.06478574  0.46264076  0.99403409    -0.18300
C327        C  0.06439263  0.06952928  0.98801733    -0.18300
C328        C  0.45714426  0.07030135  0.99934471    -0.18300
H329        H  0.48329383  0.40809145  0.02923678     0.14600
H330        H  0.04176041  0.40858022  0.02546981     0.14600
H331        H  0.48300080  0.12625673  0.68445611     0.14600
H332        H  0.04135977  0.12641814  0.67801527     0.14600
H333        H  0.40017430  0.48676686  0.98883130     0.12900
H334        H  0.39996098  0.04474098  0.98541057     0.12900
H335        H  0.12032127  0.48642002  0.96779621     0.12900
H336        H  0.12027372  0.04437037  0.96595858     0.12900
H337        H  0.00991455  0.49147881  0.98497185     0.26100
H338        H  0.00962438  0.04009950  0.98019258     0.26100
C339        C  0.15628285  0.16032263  0.66159339     0.80200
N340        N  0.16703507  0.17119989  0.96051380    -0.78100
C341        C  0.18831193  0.19226185  0.96160307     0.82700
N342        N  0.19920131  0.20257888  0.66331340    -0.78000
C343        C  0.18826808  0.19164126  0.69755749     0.82800
N344        N  0.16683380  0.17057435  0.69668316    -0.79800
N345        N  0.29554582  0.32199196  0.87637679    -0.06100
N346        N  0.29893700  0.33998793  0.90682950    -0.58200
N347        N  0.31623646  0.30166758  0.78466484    -0.05800
N348        N  0.33360263  0.30478119  0.75354904    -0.60400
N349        N  0.29542734  0.32200297  0.78489927    -0.05400
N350        N  0.29816499  0.33939649  0.75390884    -0.58200
N351        N  0.31639804  0.30167425  0.87605854    -0.05100
N352        N  0.33439845  0.30544933  0.90628710    -0.60700
C353        C  0.32340816  0.32958717  0.92492319     0.96000
C354        C  0.32205650  0.32838375  0.73480888     0.95800
N355        N  0.29649634  0.21172958  0.78355676    -0.06300
N356        N  0.29973987  0.19446069  0.75235933    -0.58800
N357        N  0.31696209  0.23203890  0.87490189    -0.04400
N358        N  0.33477013  0.22876761  0.90533234    -0.60100
N359        N  0.29660325  0.21126687  0.87475170    -0.06300
N360        N  0.30011060  0.19344130  0.90513077    -0.59100
N361        N  0.31679073  0.23256942  0.78369962    -0.04100
N362        N  0.33424348  0.22995236  0.75254716    -0.60200
Mn363      Mn  0.31766552  0.26698473  0.82990145     1.18400
C364        C  0.32335961  0.20608669  0.73348557     0.98100
C365        C  0.32410153  0.20451853  0.92362179     0.98800
N366        N  0.22619588  0.32135129  0.78510027    -0.06400
N367        N  0.22291420  0.33922707  0.75473121    -0.62700
N368        N  0.20547185  0.30017200  0.87588184    -0.05200
N369        N  0.18762555  0.30310004  0.90659897    -0.63300
N370        N  0.22582648  0.32095277  0.87616999    -0.05900
N371        N  0.22221129  0.33851108  0.90699373    -0.62900
N372        N  0.20586163  0.30055184  0.78464801    -0.04800
N373        N  0.18830720  0.30384773  0.75394661    -0.63600
Mn374      Mn  0.26073342  0.32263846  0.83072582     1.10700
C375        C  0.19915204  0.32810513  0.73581265     0.99400
C376        C  0.19829998  0.32714495  0.92548794     0.99400
N377        N  0.22717324  0.21069165  0.87517382    -0.05900
N378        N  0.22428604  0.19325081  0.90609296    -0.61300
N379        N  0.20628900  0.23090265  0.78398078    -0.05200
N380        N  0.18839954  0.22717000  0.75366495    -0.58000
N381        N  0.22706458  0.21051854  0.78385305    -0.06500
N382        N  0.22376342  0.19251321  0.75341211    -0.60800
N383        N  0.20628455  0.23096300  0.87518105    -0.05500
N384        N  0.18871624  0.22774475  0.90606103    -0.58000
Mn385      Mn  0.26186157  0.20995641  0.82934307     1.20200
Mn386      Mn  0.20488986  0.26564110  0.82984933     1.10100
Cl387      Cl  0.26127069  0.26629888  0.83003286    -0.86000
C388        C  0.20021752  0.20416682  0.92489111     0.96400
C389        C  0.19942439  0.20302062  0.73515801     0.96200
C390        C  0.11586009  0.13259248  0.62584655     0.23600
C391        C  0.13294503  0.13706273  0.66021603    -0.24500
C392        C  0.12763316  0.11875507  0.69307186     0.18500
C393        C  0.10576179  0.09693150  0.69174087     0.23500
C394        C  0.08873692  0.09287677  0.65770476    -0.24500
C395        C  0.09439104  0.10947683  0.95585951     0.18400
F396        F  0.07945272  0.10485564  0.92175457    -0.14400
F397        F  0.12175838  0.14721593  0.92427257    -0.16800
F398        F  0.10109067  0.07966918  0.72381366    -0.16800
F399        F  0.14399124  0.12141953  0.72633983    -0.14400
C400        C  0.39213578  0.11910023  0.69478907     0.23600
C401        C  0.39039461  0.13891379  0.66286524    -0.24500
C402        C  0.41187584  0.13683943  0.96730949     0.18500
C403        C  0.43356437  0.11475660  0.96813603     0.23500
C404        C  0.43404623  0.09417752  0.66412610    -0.24500
C405        C  0.41374843  0.09697871  0.69536169     0.18400
F406        F  0.41502674  0.07834842  0.72659878    -0.14400
F407        F  0.37257274  0.12069070  0.72520428    -0.16800
F408        F  0.45417751  0.11367222  0.93893175    -0.16900
F409        F  0.41243163  0.15681064  0.93754080    -0.14400
C410        C  0.10916878  0.43834326  0.69485325     0.23600
C411        C  0.08807222  0.43936288  0.99468912    -0.24500
C412        C  0.08906506  0.41751398  0.96523757     0.18500
C413        C  0.11089471  0.39559275  0.96590721     0.23500
C414        C  0.13215519  0.39484066  0.66509542    -0.24500
C415        C  0.13096938  0.41636339  0.69521277     0.18400
F416        F  0.15126060  0.41657415  0.72458694    -0.14400
F417        F  0.10779434  0.45919298  0.05455823    -0.16800
F418        F  0.11032990  0.37449619  0.60644446    -0.16800
F419        F  0.06865502  0.41728146  0.93600667    -0.14400
C420        C  0.41950954  0.43094828  0.70402665     0.23600
C421        C  0.43470692  0.43938044  0.00472266    -0.24500
C422        C  0.42852798  0.42495824  0.96907410     0.18500
C423        C  0.40617051  0.40361489  0.96696138     0.23500
C424        C  0.38920245  0.39623604  0.66611176    -0.24500
C425        C  0.39715837  0.40957786  0.70242003     0.18400
F426        F  0.38319003  0.40235941  0.73655777    -0.14400
F427        F  0.42690819  0.44308863  0.73929793    -0.16800
F428        F  0.40124871  0.39018004  0.93177458    -0.16800
F429        F  0.44416612  0.43180762  0.93610101    -0.14400
C430        C  0.36584933  0.87279990  0.99911509     0.80200
N431        N  0.35553897  0.86266179  0.29633308    -0.78100
C432        C  0.33422395  0.84140681  0.29515115     0.82700
N433        N  0.32325557  0.83028923  0.32929783    -0.78000
C434        C  0.33337447  0.84017343  0.03195940     0.82800
N435        N  0.35452545  0.86136998  0.03299136    -0.79800
C436        C  0.15502736  0.87143062  0.99734214     0.80200
N437        N  0.16519377  0.85998865  0.29672056    -0.78100
C438        C  0.18595735  0.83833488  0.29658459     0.82700
N439        N  0.19670486  0.82798396  0.33114025    -0.78000
C440        C  0.18646321  0.83920869  0.03214495     0.82800
N441        N  0.16565202  0.86087567  0.03203512    -0.79800
C442        C  0.36691007  0.66198058  0.99662460     0.80200
N443        N  0.35606787  0.67183419  0.29443422    -0.78100
C444        C  0.33451563  0.69275302  0.29409148     0.82700
N445        N  0.32383509  0.70403577  0.99553422    -0.78000
C446        C  0.33391166  0.69362391  0.03041335     0.82800
N447        N  0.35532048  0.67262516  0.03091131    -0.79800
N448        N  0.01113039  0.97085673  0.33310724    -0.36600
N449        N  0.46516070  0.51688227  0.33526574    -0.57200
N450        N  0.01074048  0.56192076  0.32509818    -0.36600
N451        N  0.05655643  0.51628550  0.32865994    -0.57200
C452        C  0.48683572  0.95482595  0.34249634     0.27000
C453        C  0.03550734  0.95435733  0.34006394     0.27000
C454        C  0.48698559  0.57914626  0.33241391     0.27000
C455        C  0.03512956  0.57880735  0.33027664     0.27000
C456        C  0.44745723  0.99278584  0.33315570     0.35600
C457        C  0.44764338  0.54059005  0.32881485     0.35600
C458        C  0.07405587  0.99205279  0.32420271     0.35600
C459        C  0.07372169  0.53992490  0.32050487     0.35600
C460        C  0.49624424  0.92753416  0.35601733    -0.21900
C461        C  0.02704212  0.92707303  0.35482847    -0.21900
C462        C  0.49633955  0.60737437  0.34234909    -0.21900
C463        C  0.02667873  0.60715103  0.34121160    -0.21900
C464        C  0.41869925  0.50129250  0.32509304    -0.23000
C465        C  0.41873650  0.53156175  0.32272016    -0.23000
C466        C  0.10208907  0.50051972  0.31245908    -0.23000
C467        C  0.10207392  0.53080165  0.31064851    -0.23000
C468        C  0.45686707  0.96325376  0.33853697    -0.18300
C469        C  0.06510015  0.96265474  0.33182096    -0.18300
C470        C  0.06480642  0.56971798  0.32440585    -0.18300
C471        C  0.45703846  0.57038067  0.33013372    -0.18300
H472        H  0.48261211  0.90952576  0.36649733     0.14600
H473        H  0.04127601  0.90889329  0.36305809     0.14600
H474        H  0.48273815  0.62575864  0.02144875     0.14600
H475        H  0.04081295  0.62604988  0.01040584     0.14600
H476        H  0.39939701  0.98717586  0.32257405     0.12900
H477        H  0.39964347  0.54534417  0.31717247     0.12900
H478        H  0.12128521  0.98624423  0.30776158     0.12900
H479        H  0.12084172  0.54454791  0.30317431     0.12900
H480        H  0.01064346  0.99140207  0.31977938     0.26100
H481        H  0.01029722  0.54034137  0.31480463     0.26100
C482        C  0.15516917  0.66041412  0.99439370     0.80200
N483        N  0.16664002  0.67139259  0.29505847    -0.78100
C484        C  0.18790349  0.69243213  0.29567157     0.82700
N485        N  0.19807981  0.70268994  0.99692399    -0.78000
C486        C  0.18667684  0.69184207  0.03097986     0.82800
N487        N  0.16526210  0.67075777  0.02968558    -0.79800
N488        N  0.29458923  0.82195692  0.20952803    -0.06100
N489        N  0.29837077  0.84031814  0.23952117    -0.58200
N490        N  0.31500735  0.80119813  0.11807320    -0.05800
N491        N  0.33268587  0.80445272  0.08730583    -0.60400
N492        N  0.29428430  0.82162516  0.11823103    -0.05400
N493        N  0.29741446  0.83924440  0.08752977    -0.58200
N494        N  0.31535061  0.80154257  0.20928161    -0.05100
N495        N  0.33367164  0.80562734  0.23909758    -0.60700
C496        C  0.32300389  0.83005893  0.25739411     0.96000
C497        C  0.32145195  0.82826223  0.06870437     0.95800
N498        N  0.29486773  0.71127395  0.11714680    -0.06300
N499        N  0.29815389  0.69380921  0.08615166    -0.58800
N500        N  0.31556769  0.73168109  0.20840963    -0.04400
N501        N  0.33354846  0.72828092  0.23862386    -0.60100
N502        N  0.29524385  0.71087156  0.20825077    -0.06300
N503        N  0.29896174  0.69288506  0.23843426    -0.59100
N504        N  0.31525106  0.73202349  0.11727570    -0.04100
N505        N  0.33282357  0.72914307  0.08629790    -0.60200
Mn506      Mn  0.31631245  0.76658036  0.16335872     1.18400
C507        C  0.32192342  0.70521823  0.06738618     0.98100
C508        C  0.32304204  0.70391597  0.25679308     0.98800
N509        N  0.22487458  0.82102621  0.11862592    -0.06400
N510        N  0.22160327  0.83879549  0.08814848    -0.62700
N511        N  0.20437166  0.80001414  0.20957471    -0.05200
N512        N  0.18669542  0.80292322  0.24046429    -0.63300
N513        N  0.22478784  0.82073995  0.20973239    -0.05900
N514        N  0.22139233  0.83822976  0.24065873    -0.62900
N515        N  0.20444171  0.80031873  0.11837290    -0.04800
N516        N  0.18684511  0.80356809  0.08769979    -0.63600
Mn517      Mn  0.25957187  0.82239037  0.16409675     1.10700
C518        C  0.19773935  0.82773192  0.06939533     0.99400
C519        C  0.19753903  0.82690031  0.25931474     0.99400
N520        N  0.22589962  0.71057993  0.20876072    -0.05900
N521        N  0.22327927  0.69323779  0.23977440    -0.61300
N522        N  0.20462099  0.73072363  0.11779879    -0.05200
N523        N  0.18668407  0.72708484  0.08749936    -0.58000
N524        N  0.22539247  0.71033399  0.11753716    -0.06500
N525        N  0.22203674  0.69242647  0.08700304    -0.60800
N526        N  0.20500958  0.73084281  0.20891217    -0.05500
N527        N  0.18766137  0.72770428  0.24001229    -0.58000
Mn528      Mn  0.26036099  0.70969072  0.16291379     1.20200
Mn529      Mn  0.20350784  0.76548634  0.16361693     1.10100
Cl530      Cl  0.25993404  0.76604407  0.16357851    -0.86000
C531        C  0.19935395  0.70419327  0.25877055     0.96400
C532        C  0.19767177  0.70297900  0.06883831     0.96200
C533        C  0.11614016  0.63164208  0.95724560     0.23600
C534        C  0.13189518  0.63705041  0.99252863    -0.24500
C535        C  0.12533324  0.61953834  0.02579153     0.18500
C536        C  0.10359009  0.59760137  0.02391368     0.23500
C537        C  0.08789808  0.59265669  0.98896447    -0.24500
C538        C  0.09345188  0.61055557  0.29228342     0.18400
F539        F  0.07746523  0.60663060  0.25887822    -0.14400
F540        F  0.11942818  0.64934056  0.26089757    -0.16800
F541        F  0.09770806  0.58110996  0.05636459    -0.16800
F542        F  0.14029051  0.62311041  0.06007299    -0.14400
C543        C  0.39095952  0.61802312  0.02827719     0.23600
C544        C  0.39014826  0.63879723  0.99742748    -0.24500
C545        C  0.40841903  0.63348894  0.29622141     0.18500
C546        C  0.43023202  0.61157309  0.29665535     0.23500
C547        C  0.43393912  0.59412208  0.99866623    -0.24500
C548        C  0.41266651  0.59598192  0.02890172     0.18400
F549        F  0.41295400  0.57639224  0.05912156    -0.14400
F550        F  0.37032336  0.61855266  0.05746886    -0.16800
F551        F  0.44762871  0.60751909  0.26435447    -0.16900
F552        F  0.40531459  0.64995994  0.26313087    -0.14400
C553        C  0.10869558  0.93837997  0.02597589     0.23600
C554        C  0.08814228  0.93917293  0.33192716    -0.24500
C555        C  0.08865284  0.91759748  0.30209907     0.18500
C556        C  0.11055832  0.89576449  0.30167209     0.23500
C557        C  0.13181335  0.89464594  0.99698845    -0.24500
C558        C  0.13042375  0.91632285  0.02689025     0.18400
F559        F  0.15040209  0.91655579  0.05664501    -0.14400
F560        F  0.10937220  0.95898264  0.39092575    -0.16800
F561        F  0.11054067  0.87417855  0.93805431    -0.16800
F562        F  0.06781588  0.91768859  0.27340464    -0.14400
C563        C  0.41866187  0.93168127  0.03891331     0.23600
C564        C  0.43417054  0.93950396  0.33780152    -0.24500
C565        C  0.43037123  0.92269134  0.30341012     0.18500
C566        C  0.40821982  0.90118763  0.30125852     0.23500
C567        C  0.38944839  0.89598321  0.00099775    -0.24500
C568        C  0.39616387  0.91042663  0.03700905     0.18400
F569        F  0.38076241  0.90445042  0.07048929    -0.14400
F570        F  0.42474033  0.94497810  0.07390248    -0.16800
F571        F  0.40561526  0.88526312  0.26748482    -0.16800
F572        F  0.44804220  0.92744289  0.27160833    -0.14400
C573        C  0.36587323  0.87283836  0.33164743     0.80200
N574        N  0.35593582  0.86255804  0.62975781    -0.78100
C575        C  0.33477963  0.84114932  0.62862997     0.82700
N576        N  0.32379260  0.83005998  0.66281038    -0.78000
C577        C  0.33344712  0.84028006  0.36442508     0.82800
N578        N  0.35464653  0.86138082  0.36550267    -0.79800
C579        C  0.15509396  0.87146411  0.33136532     0.80200
N580        N  0.16605560  0.86066887  0.62960166    -0.78100
C581        C  0.18692226  0.83912232  0.62942568     0.82700
N582        N  0.19750944  0.82860024  0.66398093    -0.78000
C583        C  0.18675734  0.83930765  0.36581453     0.82800
N584        N  0.16607879  0.86106084  0.36591378    -0.79800
C585        C  0.36702902  0.66173330  0.32921345     0.80200
N586        N  0.35707841  0.67305790  0.62769194    -0.78100
C587        C  0.33566284  0.69409715  0.62738546     0.82700
N588        N  0.32384119  0.70374892  0.32855747    -0.78000
C589        C  0.33462943  0.69383508  0.36329888     0.82800
N590        N  0.35609690  0.67290470  0.36357919    -0.79800
N591        N  0.01127946  0.97091919  0.66563143    -0.36600
N592        N  0.46509962  0.51704136  0.66906368    -0.57200
N593        N  0.01109190  0.56194311  0.65843484    -0.36600
N594        N  0.05676480  0.51623290  0.66153492    -0.57200
C595        C  0.48740271  0.95491214  0.67664159     0.27000
C596        C  0.03575077  0.95435428  0.67166617     0.27000
C597        C  0.48688668  0.57931643  0.66701230     0.27000
C598        C  0.03546435  0.57889681  0.66325704     0.27000
C599        C  0.44791477  0.99282161  0.66718975     0.35600
C600        C  0.44752175  0.54077326  0.66296459     0.35600
C601        C  0.07412965  0.99220144  0.65546582     0.35600
C602        C  0.07401007  0.53989923  0.65368934     0.35600
C603        C  0.49688201  0.92748925  0.68960342    -0.21900
C604        C  0.02750345  0.92694173  0.68624373    -0.21900
C605        C  0.49626063  0.60746262  0.67736511    -0.21900
C606        C  0.02699817  0.60737888  0.67355359    -0.21900
C607        C  0.41866558  0.50142152  0.65886431    -0.23000
C608        C  0.41864859  0.53167755  0.65667783    -0.23000
C609        C  0.10231589  0.50042859  0.64559279    -0.23000
C610        C  0.10238065  0.53073834  0.64402047    -0.23000
C611        C  0.45742341  0.96330478  0.67253800    -0.18300
C612        C  0.06523670  0.96275591  0.66298276    -0.18300
C613        C  0.06513329  0.56973622  0.65762994    -0.18300
C614        C  0.45687557  0.57062019  0.66449417    -0.18300
H615        H  0.48329578  0.90928192  0.69955570     0.14600
H616        H  0.04184860  0.90868932  0.69383551     0.14600
H617        H  0.48271189  0.62615219  0.35035699     0.14600
H618        H  0.04090280  0.62582897  0.34728031     0.14600
H619        H  0.39995480  0.98693452  0.65610163     0.12900
H620        H  0.39951500  0.54536836  0.65101991     0.12900
H621        H  0.12129290  0.98644549  0.63875750     0.12900
H622        H  0.12121918  0.54447756  0.63684981     0.12900
H623        H  0.01059359  0.99159799  0.65268892     0.26100
H624        H  0.01060528  0.54023375  0.64871596     0.26100
C625        C  0.15561967  0.66017913  0.32917079     0.80200
N626        N  0.16736322  0.67122078  0.62786558    -0.78100
C627        C  0.18880260  0.69212177  0.62846508     0.82700
N628        N  0.19842817  0.70253212  0.33054935    -0.78000
C629        C  0.18762633  0.69160691  0.36487802     0.82800
N630        N  0.16624565  0.67047804  0.36418870    -0.79800
N631        N  0.29557335  0.82220845  0.54245868    -0.06100
N632        N  0.29907016  0.84023784  0.57285822    -0.58200
N633        N  0.31584967  0.80157304  0.45083655    -0.05800
N634        N  0.33326063  0.80472258  0.41980115    -0.60400
N635        N  0.29503899  0.82190427  0.45108981    -0.05400
N636        N  0.29780400  0.83934149  0.42017000    -0.58200
N637        N  0.31642077  0.80188626  0.54206194    -0.05100
N638        N  0.33452242  0.80569559  0.57217585    -0.60700
C639        C  0.32360162  0.82985553  0.59083570     0.96000
C640        C  0.32170737  0.82833003  0.40112433     0.95800
N641        N  0.29608246  0.71165890  0.45022674    -0.06300
N642        N  0.29928123  0.69411540  0.41931963    -0.58800
N643        N  0.31688907  0.73230473  0.54117355    -0.04400
N644        N  0.33476633  0.72923835  0.57154454    -0.60100
N645        N  0.29656945  0.71149674  0.54126266    -0.06300
N646        N  0.30018323  0.69382289  0.57177066    -0.59100
N647        N  0.31641226  0.73245557  0.45010299    -0.04100
N648        N  0.33388478  0.72952052  0.41902641    -0.60200
Mn649      Mn  0.31745754  0.76705176  0.49608581     1.18400
C650        C  0.32295185  0.70550233  0.40035124     0.98100
C651        C  0.32416822  0.70508554  0.59008041     0.98800
N652        N  0.22574603  0.82131990  0.45180940    -0.06400
N653        N  0.22220467  0.83913785  0.42143934    -0.62700
N654        N  0.20549378  0.80039793  0.54275702    -0.05200
N655        N  0.18773665  0.80349512  0.57353217    -0.63300
N656        N  0.22583736  0.82119343  0.54274378    -0.05900
N657        N  0.22231981  0.83891431  0.57341460    -0.62900
N658        N  0.20542567  0.80050802  0.45168785    -0.04800
N659        N  0.18763819  0.80370689  0.42122778    -0.63600
Mn660      Mn  0.26054017  0.82272239  0.49708798     1.10700
C661        C  0.19829926  0.82794728  0.40290855     0.99400
C662        C  0.19845891  0.82765209  0.59212381     0.99400
N663        N  0.22719787  0.71075916  0.54193746    -0.05900
N664        N  0.22437218  0.69314733  0.57266329    -0.61300
N665        N  0.20596244  0.73094375  0.45107340    -0.05200
N666        N  0.18796209  0.72719071  0.42088453    -0.58000
N667        N  0.22673808  0.71056003  0.45083153    -0.06500
N668        N  0.22332167  0.69252345  0.42045453    -0.60800
N669        N  0.20632353  0.73103756  0.54217477    -0.05500
N670        N  0.18880128  0.72765484  0.57305565    -0.58000
Mn671      Mn  0.26167609  0.71004499  0.49607540     1.20200
Mn672      Mn  0.20472134  0.76571485  0.49689818     1.10100
Cl673      Cl  0.26107981  0.76639051  0.49662283    -0.86000
C674        C  0.20032601  0.70394833  0.59157518     0.96400
C675        C  0.19891503  0.70301944  0.40235969     0.96200
C676        C  0.11529930  0.63242883  0.29344253     0.23600
C677        C  0.13233992  0.63690323  0.32784682    -0.24500
C678        C  0.12712354  0.61851242  0.36063811     0.18500
C679        C  0.10531688  0.59663889  0.35922877     0.23500
C680        C  0.08824490  0.59268510  0.32522334    -0.24500
C681        C  0.09443574  0.60988771  0.62500256     0.18400
F682        F  0.07896904  0.60534642  0.59129916    -0.14400
F683        F  0.12112352  0.64787356  0.59294446    -0.16800
F684        F  0.10081338  0.57915632  0.39113024    -0.16800
F685        F  0.14353249  0.62111485  0.39386889    -0.14400
C686        C  0.39536111  0.62142756  0.36380605     0.23600
C687        C  0.39051164  0.63864921  0.32975009    -0.24500
C688        C  0.41164903  0.63698397  0.63241792     0.18500
C689        C  0.43318721  0.61479009  0.63307337     0.23500
C690        C  0.43417882  0.59394853  0.33012229    -0.24500
C691        C  0.41680560  0.59913645  0.36375898     0.18400
F692        F  0.42084057  0.58268344  0.39670228    -0.14400
F693        F  0.37915098  0.62573632  0.39711938    -0.16800
F694        F  0.45347646  0.61334919  0.60349029    -0.16900
F695        F  0.41189132  0.65664156  0.60227318    -0.14400
C696        C  0.10961727  0.93842185  0.36167441     0.23600
C697        C  0.08837293  0.93938886  0.66342041    -0.24500
C698        C  0.08982946  0.91831123  0.63304212     0.18500
C699        C  0.11176643  0.89650634  0.63320158     0.23500
C700        C  0.13216898  0.89490052  0.33145619    -0.24500
C701        C  0.13143094  0.91648122  0.36150673     0.18400
F702        F  0.15219550  0.91678273  0.39029052    -0.14400
F703        F  0.10723561  0.95789448  0.72450052    -0.16800
F704        F  0.11012034  0.87503913  0.27263417    -0.16800
F705        F  0.06983786  0.91879113  0.60330622    -0.14400
C706        C  0.41575378  0.93436704  0.37041719     0.23600
C707        C  0.43473744  0.93956774  0.67132924    -0.24500
C708        C  0.42797132  0.92599293  0.63529465     0.18500
C709        C  0.40569462  0.90459454  0.63299279     0.23500
C710        C  0.38933149  0.89598555  0.33367942    -0.24500
C711        C  0.39347096  0.91290921  0.36842756     0.18400
F712        F  0.37557465  0.90930381  0.40030117    -0.14400
F713        F  0.41927328  0.95028494  0.40409216    -0.16800
F714        F  0.40012209  0.89206956  0.59739202    -0.16800
F715        F  0.44289197  0.93380375  0.60211704    -0.14400
C716        C  0.36618491  0.87292580  0.66500371     0.80200
N717        N  0.35556408  0.86249315  0.96385614    -0.78100
C718        C  0.33434687  0.84115398  0.96267104     0.82700
N719        N  0.32333796  0.83004562  0.99681059    -0.78000
C720        C  0.33384693  0.84024059  0.69793005     0.82800
N721        N  0.35492846  0.86147460  0.69887900    -0.79800
C722        C  0.15563517  0.87186861  0.66424858     0.80200
N723        N  0.16566000  0.86022957  0.96280758    -0.78100
C724        C  0.18655241  0.83870224  0.96285401     0.82700
N725        N  0.19690635  0.82816950  0.99753879    -0.78000
C726        C  0.18731560  0.83966057  0.69869234     0.82800
N727        N  0.16648391  0.86130030  0.69881069    -0.79800
C728        C  0.36761886  0.66264185  0.66248312     0.80200
N729        N  0.35675632  0.67260762  0.96170951    -0.78100
C730        C  0.33521159  0.69353706  0.96116567     0.82700
N731        N  0.32477211  0.70491258  0.66186600    -0.78000
C732        C  0.33523949  0.69468377  0.69664078     0.82800
N733        N  0.35652848  0.67357500  0.69689150    -0.79800
N734        N  0.01064174  0.97067685  0.99792320    -0.36600
N735        N  0.46537594  0.51688901  0.00397829    -0.57200
N736        N  0.01032536  0.56187448  0.99053136    -0.36600
N737        N  0.05623392  0.51620071  0.99139754    -0.57200
C738        C  0.48762578  0.95421840  0.00919655     0.27000
C739        C  0.03514119  0.95407440  0.00371376     0.27000
C740        C  0.48698613  0.57915125  0.00166165     0.27000
C741        C  0.03480028  0.57883297  0.99447849     0.27000
C742        C  0.44810306  0.99250012  0.00139733     0.35600
C743        C  0.44776897  0.54052980  0.99730684     0.35600
C744        C  0.07336043  0.99184317  0.98662835     0.35600
C745        C  0.07323264  0.53993637  0.98304369     0.35600
C746        C  0.49703528  0.92620964  0.01984737    -0.21900
C747        C  0.02692469  0.92669174  0.01842724    -0.21900
C748        C  0.49635330  0.60719316  0.01256352    -0.21900
C749        C  0.02651586  0.60727814  0.00522511    -0.21900
C750        C  0.41916218  0.50099997  0.99278596    -0.23000
C751        C  0.41903654  0.53125946  0.99037508    -0.23000
C752        C  0.10154749  0.50055956  0.97401903    -0.23000
C753        C  0.10145323  0.53087885  0.97241302    -0.23000
C754        C  0.45760415  0.96287171  0.00603448    -0.18300
C755        C  0.06461303  0.96241756  0.99470110    -0.18300
C756        C  0.06439488  0.56972586  0.98776208    -0.18300
C757        C  0.45695934  0.57044905  0.99901920    -0.18300
H758        H  0.48340615  0.90759901  0.02824685     0.14600
H759        H  0.04127196  0.90841309  0.02589711     0.14600
H760        H  0.48265983  0.62616397  0.68575935     0.14600
H761        H  0.04120536  0.62613901  0.67923075     0.14600
H762        H  0.40016333  0.98668824  0.99011072     0.12900
H763        H  0.39992797  0.54483843  0.98413791     0.12900
H764        H  0.12039268  0.98611910  0.96927133     0.12900
H765        H  0.12011736  0.54469773  0.96471872     0.12900
H766        H  0.00985539  0.99136330  0.98499532     0.26100
H767        H  0.00965342  0.54017306  0.98073222     0.26100
C768        C  0.15612093  0.66022287  0.66201676     0.80200
N769        N  0.16679343  0.67157393  0.96056644    -0.78100
C770        C  0.18813184  0.69256346  0.96172842     0.82700
N771        N  0.19924034  0.70230120  0.66335862    -0.78000
C772        C  0.18822557  0.69160347  0.69769806     0.82800
N773        N  0.16669475  0.67063437  0.69700510    -0.79800
N774        N  0.29540769  0.82226435  0.87624972    -0.06100
N775        N  0.29880297  0.84028336  0.90668619    -0.58200
N776        N  0.31608913  0.80174705  0.78465701    -0.05800
N777        N  0.33354057  0.80482456  0.75362447    -0.60400
N778        N  0.29528286  0.82208874  0.78476468    -0.05400
N779        N  0.29812230  0.83946138  0.75376423    -0.58200
N780        N  0.31622207  0.80190702  0.87601766    -0.05100
N781        N  0.33419298  0.80567527  0.90627428    -0.60700
C782        C  0.32323544  0.82984794  0.92485356     0.96000
C783        C  0.32205370  0.82840522  0.73478501     0.95800
N784        N  0.29639912  0.71182532  0.78374224    -0.06300
N785        N  0.29969987  0.69450669  0.75260239    -0.58800
N786        N  0.31680443  0.73224335  0.87506387    -0.04400
N787        N  0.33463326  0.72895624  0.90547224    -0.60100
N788        N  0.29645525  0.71146286  0.87491186    -0.06300
N789        N  0.29998361  0.69361883  0.90526341    -0.59100
N790        N  0.31668680  0.73266926  0.78388450    -0.04100
N791        N  0.33419416  0.73000836  0.75279716    -0.60200
Mn792      Mn  0.31750480  0.76714354  0.82998631     1.18400
C793        C  0.32335662  0.70610626  0.73377727     0.98100
C794        C  0.32397765  0.70469141  0.92374520     0.98800
N795        N  0.22594157  0.82143461  0.78500147    -0.06400
N796        N  0.22256210  0.83927423  0.75461093    -0.62700
N797        N  0.20535488  0.80035688  0.87590973    -0.05200
N798        N  0.18761544  0.80323548  0.90674672    -0.63300
N799        N  0.22569181  0.82115886  0.87611733    -0.05900
N800        N  0.22216827  0.83867591  0.90700756    -0.62900
N801        N  0.20562297  0.80061756  0.78465666    -0.04800
N802        N  0.18799739  0.80385490  0.75401494    -0.63600
Mn803      Mn  0.26056016  0.82281470  0.83059511     1.10700
C804        C  0.19875479  0.82811859  0.73581296     0.99400
C805        C  0.19833023  0.82726700  0.92562971     0.99400
N806        N  0.22703927  0.71089554  0.87531682    -0.05900
N807        N  0.22415783  0.69350457  0.90628643    -0.61300
N808        N  0.20615832  0.73098745  0.78407606    -0.05200
N809        N  0.18830267  0.72722210  0.75372826    -0.58000
N810        N  0.22697134  0.71064003  0.78397380    -0.06500
N811        N  0.22373892  0.69263724  0.75351900    -0.60800
N812        N  0.20614499  0.73115837  0.87527328    -0.05500
N813        N  0.18857188  0.72798248  0.90615135    -0.58000
Mn814      Mn  0.26173618  0.71011554  0.82949393     1.20200
Mn815      Mn  0.20473248  0.76577363  0.82990836     1.10100
Cl816      Cl  0.26111559  0.76646363  0.83006524    -0.86000
C817        C  0.20008915  0.70445085  0.92505334     0.96400
C818        C  0.19940603  0.70310653  0.73521963     0.96200
C819        C  0.11631356  0.63175460  0.62603581     0.23600
C820        C  0.13265948  0.63704361  0.66085147    -0.24500
C821        C  0.12647140  0.61962376  0.69433246     0.18500
C822        C  0.10464865  0.59774314  0.69302783     0.23500
C823        C  0.08854655  0.59275181  0.65843181    -0.24500
C824        C  0.09430434  0.60973496  0.95565124     0.18400
F825        F  0.07939732  0.60509921  0.92152417    -0.14400
F826        F  0.12150472  0.64766320  0.92421804    -0.16800
F827        F  0.09907901  0.58137407  0.72568499    -0.16800
F828        F  0.14185616  0.62324065  0.72826612    -0.14400
C829        C  0.39176194  0.61893252  0.69439127     0.23600
C830        C  0.39060267  0.63925755  0.66304039    -0.24500
C831        C  0.41179711  0.63717625  0.96750035     0.18500
C832        C  0.43349500  0.61511145  0.96820527     0.23500
C833        C  0.43398614  0.59431774  0.66410485    -0.24500
C834        C  0.41327711  0.59674427  0.69491934     0.18400
F835        F  0.41395448  0.57758396  0.72561321    -0.14400
F836        F  0.37166332  0.62005992  0.72421364    -0.16800
F837        F  0.45423871  0.61427263  0.93915392    -0.16900
F838        F  0.41244354  0.65735180  0.93798111    -0.14400
C839        C  0.10868447  0.93798246  0.69451318     0.23600
C840        C  0.08784560  0.93906333  0.99543132    -0.24500
C841        C  0.08876337  0.91714959  0.96604836     0.18500
C842        C  0.11063823  0.89526900  0.96663101     0.23500
C843        C  0.13240864  0.89508777  0.66418893    -0.24500
C844        C  0.13044090  0.91597124  0.69505494     0.18400
F845        F  0.14987686  0.91550481  0.72543121    -0.14400
F846        F  0.10778233  0.95901379  0.05511442    -0.16800
F847        F  0.11226365  0.87631759  0.60349468    -0.16800
F848        F  0.06826924  0.91684417  0.93692494    -0.14400
C849        C  0.41901582  0.93152248  0.70529502     0.23600
C850        C  0.43474687  0.93921637  0.00500181    -0.24500
C851        C  0.42834022  0.92503982  0.96925541     0.18500
C852        C  0.40597057  0.90371341  0.96712942     0.23500
C853        C  0.38962007  0.89624214  0.66696808    -0.24500
C854        C  0.39658159  0.91024314  0.70321662     0.18400
F855        F  0.38145092  0.90385573  0.73677635    -0.14400
F856        F  0.42532552  0.94441100  0.74048023    -0.16800
F857        F  0.40082047  0.89054918  0.93182207    -0.16800
F858        F  0.44375537  0.93213001  0.93618880    -0.14400
C859        C  0.86576010  0.37265207  0.99986443     0.80200
N860        N  0.85560865  0.36244609  0.29701466    -0.78100
C861        C  0.83415681  0.34136473  0.29585349     0.82700
N862        N  0.82305742  0.33035538  0.32998336    -0.78000
C863        C  0.83247745  0.34065370  0.03220290     0.82800
N864        N  0.85413109  0.36129999  0.03355441    -0.79800
C865        C  0.65577971  0.37217246  0.99861393     0.80200
N866        N  0.66515838  0.36057703  0.29738827    -0.78100
C867        C  0.68619928  0.33920039  0.29722626     0.82700
N868        N  0.69692128  0.32882451  0.33176283    -0.78000
C869        C  0.68672071  0.33928028  0.03307062     0.82800
N870        N  0.66632875  0.36132323  0.03316822    -0.79800
C871        C  0.86654821  0.16217530  0.99636904     0.80200
N872        N  0.85677587  0.17273674  0.29495508    -0.78100
C873        C  0.83543861  0.19387804  0.29482109     0.82700
N874        N  0.82384838  0.20471200  0.99562766    -0.78000
C875        C  0.83405224  0.19426654  0.03043139     0.82800
N876        N  0.85527897  0.17305831  0.03073692    -0.79800
N877        N  0.51067086  0.47109328  0.33157682    -0.36600
N878        N  0.96538984  0.01661807  0.33575691    -0.57200
N879        N  0.51061851  0.06206295  0.32460437    -0.36600
N880        N  0.55622756  0.01639823  0.32726238    -0.57200
C881        C  0.98708384  0.45458024  0.34273375     0.27000
C882        C  0.53505514  0.45465985  0.33875903     0.27000
C883        C  0.98710946  0.07903910  0.33214487     0.27000
C884        C  0.53499203  0.07891672  0.32991865     0.27000
C885        C  0.94769696  0.49259297  0.33289140     0.35600
C886        C  0.94779512  0.04027820  0.32921275     0.35600
C887        C  0.57350689  0.49216184  0.32205119     0.35600
C888        C  0.57342026  0.04004424  0.31929510     0.35600
C889        C  0.99638613  0.42708055  0.35567148    -0.21900
C890        C  0.52662984  0.42757452  0.35419038    -0.21900
C891        C  0.99639163  0.10749961  0.34099569    -0.21900
C892        C  0.52655279  0.10724139  0.34101433    -0.21900
C893        C  0.91897509  0.00081903  0.32592675    -0.23000
C894        C  0.91890785  0.03109315  0.32329062    -0.23000
C895        C  0.60164668  0.00061193  0.31056013    -0.23000
C896        C  0.60170137  0.03091770  0.30907715    -0.23000
C897        C  0.95715286  0.46306468  0.33842868    -0.18300
C898        C  0.56461069  0.46284456  0.33016821    -0.18300
C899        C  0.56462517  0.06980239  0.32396237    -0.18300
C900        C  0.95711718  0.07016378  0.33012490    -0.18300
H901        H  0.98269327  0.40888669  0.36540540     0.14600
H902        H  0.54088685  0.40950244  0.36275457     0.14600
H903        H  0.98265186  0.12613561  0.01614262     0.14600
H904        H  0.54117118  0.12563292  0.01641789     0.14600
H905        H  0.89968515  0.48683535  0.32209521     0.12900
H906        H  0.89975401  0.04476776  0.31765058     0.12900
H907        H  0.62055327  0.48625266  0.30483382     0.12900
H908        H  0.62049009  0.04467826  0.30174276     0.12900
H909        H  0.51014115  0.49147321  0.31778110     0.26100
H910        H  0.51010579  0.04050593  0.31422003     0.26100
C911        C  0.65592804  0.16040746  0.99589542     0.80200
N912        N  0.66698480  0.17090206  0.29557541    -0.78100
C913        C  0.68835708  0.19184477  0.29625901     0.82700
N914        N  0.69840314  0.20307674  0.99755274    -0.78000
C915        C  0.68734713  0.19225312  0.03183696     0.82800
N916        N  0.66615443  0.17095608  0.03097683    -0.79800
N917        N  0.79476705  0.32225519  0.21004282    -0.06100
N918        N  0.79835562  0.34039226  0.24029390    -0.58200
N919        N  0.81487259  0.30166030  0.11841120    -0.05800
N920        N  0.83223921  0.30489800  0.08735132    -0.60400
N921        N  0.79405298  0.32197804  0.11878187    -0.05400
N922        N  0.79675820  0.33948778  0.08791979    -0.58200
N923        N  0.81564500  0.30196782  0.20958428    -0.05100
N924        N  0.83387677  0.30591288  0.23951295    -0.60700
C925        C  0.82298941  0.33011454  0.25809984     0.96000
C926        C  0.82063941  0.32852807  0.06876781     0.95800
N927        N  0.79536487  0.21172075  0.11762067    -0.06300
N928        N  0.79858714  0.19429135  0.08656637    -0.58800
N929        N  0.81627233  0.23231817  0.20878846    -0.04400
N930        N  0.83424429  0.22922134  0.23907768    -0.60100
N931        N  0.79599611  0.21146335  0.20889322    -0.06300
N932        N  0.79974573  0.19373534  0.23933629    -0.59100
N933        N  0.81562536  0.23258357  0.11754565    -0.04100
N934        N  0.83303573  0.22982996  0.08637053    -0.60200
Mn935      Mn  0.81665303  0.26711252  0.16364882     1.18400
C936        C  0.82218358  0.20584057  0.06754225     0.98100
C937        C  0.82377173  0.20498991  0.25759092     0.98800
N938        N  0.72495505  0.32128753  0.11966842    -0.06400
N939        N  0.72174510  0.33896181  0.08909969    -0.62700
N940        N  0.70472109  0.30035581  0.21066910    -0.05200
N941        N  0.68696575  0.30351078  0.24143585    -0.63300
N942        N  0.72509244  0.32112238  0.21063604    -0.05900
N943        N  0.72161365  0.33887065  0.24128142    -0.62900
N944        N  0.70461012  0.30050518  0.11941832    -0.04800
N945        N  0.68712454  0.30359316  0.08859864    -0.63600
Mn946      Mn  0.75967984  0.32270062  0.16488480     1.10700
C947        C  0.69802691  0.32773421  0.07023284     0.99400
C948        C  0.69772385  0.32767393  0.25997848     0.99400
N949        N  0.72655862  0.21070988  0.20967899    -0.05900
N950        N  0.72384158  0.19307203  0.24039642    -0.61300
N951        N  0.70511571  0.23099279  0.11883393    -0.05200
N952        N  0.68730171  0.22748430  0.08838015    -0.58000
N953        N  0.72595981  0.21067294  0.11846684    -0.06500
N954        N  0.72277292  0.19293877  0.08773173    -0.60800
N955        N  0.70562794  0.23094161  0.21001496    -0.05500
N956        N  0.68817808  0.22748404  0.24096182    -0.58000
Mn957      Mn  0.76098863  0.21004425  0.16368514     1.20200
Mn958      Mn  0.70389041  0.26569022  0.16474556     1.10100
Cl959      Cl  0.76028274  0.26637604  0.16437536    -0.86000
C960        C  0.69981476  0.20379942  0.25941619     0.96400
C961        C  0.69847005  0.20355246  0.06951335     0.96200
C962        C  0.61477726  0.13351339  0.96083062     0.23600
C963        C  0.63271027  0.13711150  0.99455666    -0.24500
C964        C  0.62834897  0.11795461  0.02675878     0.18500
C965        C  0.60645998  0.09616142  0.02547218     0.23500
C966        C  0.58841237  0.09309590  0.99219648    -0.24500
C967        C  0.59342827  0.11063972  0.29241525     0.18400
F968        F  0.57743513  0.10694656  0.25897202    -0.14400
F969        F  0.61962473  0.14937432  0.26134720    -0.16800
F970        F  0.60285382  0.07785974  0.05674797    -0.16800
F971        F  0.64574180  0.11969605  0.05918715    -0.14400
C972        C  0.89278840  0.11990716  0.02968570     0.23600
C973        C  0.88982825  0.13885400  0.99694636    -0.24500
C974        C  0.90930231  0.13434526  0.29691064     0.18500
C975        C  0.93101450  0.11229099  0.29724577     0.23500
C976        C  0.93354894  0.09395640  0.99757808    -0.24500
C977        C  0.91435333  0.09766857  0.02987503     0.18400
F978        F  0.91678608  0.07992592  0.06188907    -0.14400
F979        F  0.87454637  0.12249811  0.06140997    -0.16800
F980        F  0.94925072  0.10913789  0.26560022    -0.16900
F981        F  0.90703540  0.15171086  0.26451299    -0.14400
C982        C  0.60903517  0.43834116  0.02941244     0.23600
C983        C  0.58766778  0.43940767  0.33090382    -0.24500
C984        C  0.58856566  0.41775104  0.30122479     0.18500
C985        C  0.61036274  0.39581745  0.30156967     0.23500
C986        C  0.63280856  0.39565238  0.99857698    -0.24500
C987        C  0.63077272  0.41628315  0.02974218     0.18400
F988        F  0.65005605  0.41545032  0.06028421    -0.14400
F989        F  0.60785111  0.45921140  0.39053823    -0.16800
F990        F  0.61295384  0.37757382  0.93734813    -0.16800
F991        F  0.56823937  0.41788901  0.27188652    -0.14400
C992        C  0.91853102  0.43156608  0.03985123     0.23600
C993        C  0.93446998  0.43934045  0.33760178    -0.24500
C994        C  0.92745599  0.42570918  0.30171576     0.18500
C995        C  0.90535070  0.40414837  0.29983914     0.23500
C996        C  0.88970372  0.39542918  0.00210743    -0.24500
C997        C  0.89619342  0.41011561  0.03805539     0.18400
F998        F  0.88067941  0.40426957  0.07149165    -0.14400
F999        F  0.92437512  0.44522324  0.07467432    -0.16800
F1000       F  0.89953656  0.39157924  0.26433759    -0.16800
F1001       F  0.94208187  0.43349287  0.26829955    -0.14400
C1002       C  0.86605514  0.37258935  0.33225764     0.80200
N1003       N  0.85612296  0.36244395  0.63057345    -0.78100
C1004       C  0.83448465  0.34153373  0.62913246     0.82700
N1005       N  0.82294296  0.33074775  0.66314367    -0.78000
C1006       C  0.83331124  0.34029952  0.36509710     0.82800
N1007       N  0.85469489  0.36123133  0.36611965    -0.79800
C1008       C  0.65473879  0.37176467  0.33204071     0.80200
N1009       N  0.66552809  0.36059689  0.62956080    -0.78100
C1010       C  0.68625286  0.33890418  0.62950708     0.82700
N1011       N  0.69673327  0.32836614  0.66412001    -0.78000
C1012       C  0.68667815  0.33982315  0.36646106     0.82800
N1013       N  0.66569555  0.36131889  0.36661012    -0.79800
C1014       C  0.86748401  0.16217827  0.32962386     0.80200
N1015       N  0.85695339  0.17251581  0.62885503    -0.78100
C1016       C  0.83562908  0.19366286  0.62827572     0.82700
N1017       N  0.82470062  0.20462400  0.32940530    -0.78000
C1018       C  0.83523338  0.19425554  0.36406397     0.82800
N1019       N  0.85650325  0.17310266  0.36412276    -0.79800
N1020       N  0.51086815  0.47127895  0.66540746    -0.36600
N1021       N  0.96569817  0.01674604  0.67068999    -0.57200
N1022       N  0.51067453  0.06218677  0.65725493    -0.36600
N1023       N  0.55655824  0.01664742  0.65999733    -0.57200
C1024       C  0.98731265  0.45465330  0.67687841     0.27000
C1025       C  0.53519818  0.45438661  0.67093968     0.27000
C1026       C  0.98743373  0.07924233  0.66659109     0.27000
C1027       C  0.53511922  0.07907565  0.66184526     0.27000
C1028       C  0.94789947  0.49265862  0.66759770     0.35600
C1029       C  0.94804561  0.04048132  0.66483513     0.35600
C1030       C  0.57387020  0.49252092  0.65700149     0.35600
C1031       C  0.57345762  0.04021779  0.65067234     0.35600
C1032       C  0.99669252  0.42735944  0.69043748    -0.21900
C1033       C  0.52657607  0.42640385  0.68298498    -0.21900
C1034       C  0.99680358  0.10771985  0.67514677    -0.21900
C1035       C  0.52682895  0.10738362  0.67318571    -0.21900
C1036       C  0.91909220  0.00110117  0.66203325    -0.23000
C1037       C  0.91904791  0.03138576  0.65971347    -0.23000
C1038       C  0.60171542  0.00078757  0.64216914    -0.23000
C1039       C  0.60157103  0.03105368  0.63971392    -0.23000
C1040       C  0.95733838  0.46309664  0.67292945    -0.18300
C1041       C  0.56489851  0.46300937  0.66387093    -0.18300
C1042       C  0.56467761  0.06998984  0.65507731    -0.18300
C1043       C  0.95744063  0.07035574  0.66531357    -0.18300
H1044       H  0.98304542  0.40937760  0.70096708     0.14600
H1045       H  0.54069200  0.40774560  0.68951894     0.14600
H1046       H  0.98271570  0.12642746  0.34815837     0.14600
H1047       H  0.54078205  0.12589142  0.34721815     0.14600
H1048       H  0.89977550  0.48703770  0.65761768     0.12900
H1049       H  0.89984547  0.04512582  0.65466875     0.12900
H1050       H  0.62110162  0.48686392  0.64051117     0.12900
H1051       H  0.62012631  0.04477780  0.63127325     0.12900
H1052       H  0.51046482  0.49250905  0.65431014     0.26100
H1053       H  0.51006016  0.04064371  0.64681091     0.26100
C1054       C  0.65578212  0.15978857  0.32966890     0.80200
N1055       N  0.66711861  0.17124065  0.62782754    -0.78100
C1056       C  0.68836450  0.19228547  0.62882716     0.82700
N1057       N  0.69877726  0.20193844  0.33118900    -0.78000
C1058       C  0.68781459  0.19109744  0.36547358     0.82800
N1059       N  0.66632624  0.17008506  0.36472206    -0.79800
N1060       N  0.79529793  0.32223180  0.54311598    -0.06100
N1061       N  0.79884343  0.34045307  0.57330189    -0.58200
N1062       N  0.81574036  0.30156914  0.45158986    -0.05800
N1063       N  0.83315509  0.30475227  0.42055230    -0.60400
N1064       N  0.79489099  0.32186316  0.45178446    -0.05400
N1065       N  0.79763146  0.33929485  0.42084836    -0.58200
N1066       N  0.81619498  0.30196115  0.54282939    -0.05100
N1067       N  0.83439076  0.30601432  0.57278449    -0.60700
C1068       C  0.82348346  0.33027311  0.59122889     0.96000
C1069       C  0.82157351  0.32834007  0.40183373     0.95800
N1070       N  0.79631199  0.21156291  0.45100223    -0.06300
N1071       N  0.79972904  0.19408802  0.42004488    -0.58800
N1072       N  0.81680539  0.23219695  0.54216819    -0.04400
N1073       N  0.83472750  0.22898865  0.57249163    -0.60100
N1074       N  0.79653798  0.21133046  0.54210947    -0.06300
N1075       N  0.80024495  0.19349186  0.57244577    -0.59100
N1076       N  0.81654608  0.23245510  0.45105004    -0.04100
N1077       N  0.83413291  0.22967993  0.42006852    -0.60200
Mn1078     Mn  0.81736074  0.26703702  0.49699006     1.18400
C1079       C  0.82342660  0.20563198  0.40125237     0.98100
C1080       C  0.82424676  0.20467396  0.59082339     0.98800
N1081       N  0.72567930  0.32120929  0.45221575    -0.06400
N1082       N  0.72212523  0.33923250  0.42206794    -0.62700
N1083       N  0.70514923  0.30020693  0.54296073    -0.05200
N1084       N  0.68726307  0.30329073  0.57360456    -0.63300
N1085       N  0.72550078  0.32099194  0.54311599    -0.05900
N1086       N  0.72185710  0.33870174  0.57376523    -0.62900
N1087       N  0.70535073  0.30040830  0.45190339    -0.04800
N1088       N  0.68751045  0.30385602  0.42153229    -0.63600
Mn1089     Mn  0.76032512  0.32259935  0.49764821     1.10700
C1090       C  0.69815978  0.32823554  0.40348916     0.99400
C1091       C  0.69791446  0.32744001  0.59228322     0.99400
N1092       N  0.72705556  0.21067563  0.54244314    -0.05900
N1093       N  0.72420611  0.19321993  0.57332768    -0.61300
N1094       N  0.70602373  0.23070695  0.45143639    -0.05200
N1095       N  0.68801725  0.22680438  0.42129259    -0.58000
N1096       N  0.72682195  0.21033900  0.45135747    -0.06500
N1097       N  0.72340966  0.19216966  0.42112348    -0.60800
N1098       N  0.70612887  0.23090898  0.54243716    -0.05500
N1099       N  0.68855922  0.22765028  0.57328775    -0.58000
Mn1100     Mn  0.76170612  0.20989306  0.49673554     1.20200
Mn1101     Mn  0.70458763  0.26554115  0.49711867     1.10100
Cl1102     Cl  0.76097816  0.26625841  0.49721318    -0.86000
C1103       C  0.70013351  0.20410926  0.59209672     0.96400
C1104       C  0.69898834  0.20256368  0.40296287     0.96200
C1105       C  0.61535849  0.13239162  0.29378643     0.23600
C1106       C  0.63231865  0.13670244  0.32828536    -0.24500
C1107       C  0.62679574  0.11837620  0.36108053     0.18500
C1108       C  0.60491146  0.09657809  0.35943069     0.23500
C1109       C  0.58808189  0.09268566  0.32519818    -0.24500
C1110       C  0.59348476  0.11099657  0.62367004     0.18400
F1111       F  0.57750750  0.10746362  0.59017872    -0.14400
F1112       F  0.61962555  0.15002461  0.59308692    -0.16800
F1113       F  0.60005913  0.07915686  0.39131231    -0.16800
F1114       F  0.64294644  0.12098233  0.39453989    -0.14400
C1115       C  0.89447025  0.12051316  0.36318900     0.23600
C1116       C  0.89064729  0.13875591  0.32988610    -0.24500
C1117       C  0.90861106  0.13328567  0.63076061     0.18500
C1118       C  0.93042560  0.11134218  0.63139299     0.23500
C1119       C  0.93413639  0.09375382  0.33004588    -0.24500
C1120       C  0.91592911  0.09820997  0.36312846     0.18400
F1121       F  0.91923123  0.08110880  0.39562240    -0.14400
F1122       F  0.87716680  0.12381239  0.39572070    -0.16800
F1123       F  0.94785152  0.10718499  0.59914141    -0.16900
F1124       F  0.90533204  0.14935107  0.59734466    -0.14400
C1125       C  0.60854999  0.43857936  0.36138438     0.23600
C1126       C  0.58807311  0.43964392  0.66405886    -0.24500
C1127       C  0.58953138  0.41880695  0.63338161     0.18500
C1128       C  0.61146588  0.39699817  0.63319063     0.23500
C1129       C  0.63150859  0.39494277  0.33196277    -0.24500
C1130       C  0.63020584  0.41646807  0.36206973     0.18400
F1131       F  0.65026529  0.41656531  0.39172678    -0.14400
F1132       F  0.60731861  0.45790922  0.72510666    -0.16800
F1133       F  0.61028512  0.37501498  0.27262360    -0.16800
F1134       F  0.56948145  0.41949928  0.60372457    -0.14400
C1135       C  0.91952977  0.43082550  0.37199016     0.23600
C1136       C  0.93466930  0.43928152  0.67220147    -0.24500
C1137       C  0.93072993  0.42258927  0.63773037     0.18500
C1138       C  0.90866978  0.40097317  0.63565692     0.23500
C1139       C  0.88973222  0.39563426  0.33411070    -0.24500
C1140       C  0.89729875  0.40930702  0.37036540     0.18400
F1141       F  0.88305175  0.40229223  0.40438218    -0.14400
F1142       F  0.92652847  0.44336287  0.40716646    -0.16800
F1143       F  0.90599676  0.38515014  0.60180625    -0.16800
F1144       F  0.94821622  0.42752048  0.60579723    -0.14400
C1145       C  0.86623321  0.37263201  0.66599442     0.80200
N1146       N  0.85533260  0.36276309  0.96443492    -0.78100
C1147       C  0.83358348  0.34195965  0.96292488     0.82700
N1148       N  0.82224045  0.33096111  0.99693420    -0.78000
C1149       C  0.83287925  0.34075382  0.69840176     0.82800
N1150       N  0.85442913  0.36150783  0.69971853    -0.79800
C1151       C  0.65514999  0.37191431  0.66416139     0.80200
N1152       N  0.66610929  0.36087463  0.96397929    -0.78100
C1153       C  0.68654310  0.33891789  0.96379898     0.82700
N1154       N  0.69683827  0.32811120  0.99836737    -0.78000
C1155       C  0.68653534  0.33951866  0.69877535     0.82800
N1156       N  0.66587126  0.36130291  0.69876515    -0.79800
C1157       C  0.86757341  0.16223051  0.66373121     0.80200
N1158       N  0.85615099  0.17279757  0.96155128    -0.78100
C1159       C  0.83483830  0.19397906  0.96116088     0.82700
N1160       N  0.82475980  0.20467362  0.66263408    -0.78000
C1161       C  0.83513688  0.19457756  0.69751687     0.82800
N1162       N  0.85643174  0.17342837  0.69801060    -0.79800
N1163       N  0.51132732  0.47127617  0.00014139    -0.36600
N1164       N  0.96492908  0.01661378  0.00314181    -0.57200
N1165       N  0.51095988  0.06207920  0.99257484    -0.36600
N1166       N  0.55696807  0.01653698  0.99532239    -0.57200
C1167       C  0.98732613  0.45436950  0.00926268     0.27000
C1168       C  0.53577274  0.45455443  0.00574196     0.27000
C1169       C  0.98659207  0.07897261  0.99882995     0.27000
C1170       C  0.53536041  0.07893193  0.99789910     0.27000
C1171       C  0.94762330  0.49242253  0.00204905     0.35600
C1172       C  0.94720836  0.04028749  0.99706920     0.35600
C1173       C  0.57421473  0.49268542  0.99076898     0.35600
C1174       C  0.57408103  0.04026231  0.98741873     0.35600
C1175       C  0.99700841  0.42688033  0.02171265    -0.21900
C1176       C  0.52733561  0.42668135  0.01846072    -0.21900
C1177       C  0.99613072  0.10728575  0.00799707    -0.21900
C1178       C  0.52693272  0.10705345  0.00988475    -0.21900
C1179       C  0.91841881  0.00077394  0.99423189    -0.23000
C1180       C  0.91827706  0.03105226  0.99169863    -0.23000
C1181       C  0.60274321  0.00098214  0.98006850    -0.23000
C1182       C  0.60256623  0.03125644  0.97803002    -0.23000
C1183       C  0.95727045  0.46283641  0.00661434    -0.18300
C1184       C  0.56540389  0.46319585  0.99810834    -0.18300
C1185       C  0.56503830  0.07002853  0.99142084    -0.18300
C1186       C  0.95651888  0.07021843  0.99763895    -0.18300
H1187       H  0.98360168  0.40870871  0.03220507     0.14600
H1188       H  0.54157925  0.40815875  0.02518770     0.14600
H1189       H  0.98320033  0.12664348  0.68258301     0.14600
H1190       H  0.54113204  0.12606028  0.67892386     0.14600
H1191       H  0.89938369  0.48658378  0.99337679     0.12900
H1192       H  0.89904476  0.04468106  0.98635682     0.12900
H1193       H  0.62143939  0.48713990  0.97417500     0.12900
H1194       H  0.62134966  0.04507521  0.97086748     0.12900
H1195       H  0.51075780  0.49241831  0.98854084     0.26100
H1196       H  0.51044784  0.04063460  0.98153075     0.26100
C1197       C  0.65559057  0.16018205  0.66173253     0.80200
N1198       N  0.66718191  0.17148378  0.96181770    -0.78100
C1199       C  0.68831347  0.19268147  0.96255207     0.82700
N1200       N  0.69833036  0.20257573  0.66391845    -0.78000
C1201       C  0.68702888  0.19181631  0.69807926     0.82800
N1202       N  0.66568386  0.17063559  0.69697772    -0.79800
N1203       N  0.79454446  0.32290111  0.87650162    -0.06100
N1204       N  0.79799111  0.34101864  0.90685019    -0.58200
N1205       N  0.81500040  0.30220660  0.78488770    -0.05800
N1206       N  0.83243472  0.30528798  0.75386593    -0.60400
N1207       N  0.79415191  0.32249564  0.78497153    -0.05400
N1208       N  0.79692682  0.33984601  0.75394334    -0.58200
N1209       N  0.81540798  0.30259670  0.87624951    -0.05100
N1210       N  0.83348580  0.30653832  0.90637380    -0.60700
C1211       C  0.82254935  0.33075046  0.92492285     0.96000
C1212       C  0.82087849  0.32880722  0.73500067     0.95800
N1213       N  0.79557235  0.21230232  0.78387849    -0.06300
N1214       N  0.79917766  0.19474610  0.75303213    -0.58800
N1215       N  0.81601805  0.23280487  0.87525587    -0.04400
N1216       N  0.83390172  0.22955870  0.90561629    -0.60100
N1217       N  0.79580260  0.21188781  0.87502063    -0.06300
N1218       N  0.79950720  0.19398015  0.90528017    -0.59100
N1219       N  0.81585368  0.23315532  0.78409947    -0.04100
N1220       N  0.83365272  0.23026039  0.75333331    -0.60200
Mn1221     Mn  0.81659519  0.26769954  0.83022205     1.18400
C1222       C  0.82303356  0.20618150  0.73446907     0.98100
C1223       C  0.82344637  0.20516764  0.92379477     0.98800
N1224       N  0.72490967  0.32164927  0.78541790    -0.06400
N1225       N  0.72162901  0.33933029  0.75484625    -0.62700
N1226       N  0.70462461  0.30060557  0.87654536    -0.05200
N1227       N  0.68715569  0.30341928  0.90767360    -0.63300
N1228       N  0.72491829  0.32145339  0.87651797    -0.05900
N1229       N  0.72164238  0.33892507  0.90748223    -0.62900
N1230       N  0.70459493  0.30082374  0.78515467    -0.04800
N1231       N  0.68708047  0.30389887  0.75436071    -0.63600
Mn1232     Mn  0.75958636  0.32318982  0.83090197     1.10700
C1233       C  0.69790220  0.32806961  0.73599391     0.99400
C1234       C  0.69800895  0.32745004  0.92644319     0.99400
N1235       N  0.72639384  0.21106448  0.87556608    -0.05900
N1236       N  0.72378196  0.19364471  0.90653705    -0.61300
N1237       N  0.70504028  0.23116788  0.78457383    -0.05200
N1238       N  0.68701119  0.22729742  0.75440521    -0.58000
N1239       N  0.72594973  0.21091228  0.78427030    -0.06500
N1240       N  0.72258939  0.19287367  0.75387006    -0.60800
N1241       N  0.70546376  0.23129310  0.87580098    -0.05500
N1242       N  0.68813085  0.22806007  0.90691210    -0.58000
Mn1243     Mn  0.76094584  0.21047149  0.82964111     1.20200
Mn1244     Mn  0.70380618  0.26598486  0.83048154     1.10100
Cl1245     Cl  0.76020190  0.26682185  0.83038952    -0.86000
C1246       C  0.69984210  0.20453124  0.92562858     0.96400
C1247       C  0.69807652  0.20318319  0.73581412     0.96200
C1248       C  0.61537528  0.13280535  0.62531170     0.23600
C1249       C  0.63231619  0.13692818  0.65989025    -0.24500
C1250       C  0.62703060  0.11819826  0.69230492     0.18500
C1251       C  0.60523871  0.09633899  0.69037335     0.23500
C1252       C  0.58821253  0.09280222  0.65624971    -0.24500
C1253       C  0.59273835  0.11181406  0.95985119     0.18400
F1254       F  0.57570956  0.10889054  0.92719780    -0.14400
F1255       F  0.61821713  0.15116044  0.92884993    -0.16800
F1256       F  0.60068186  0.07846845  0.72188168    -0.16800
F1257       F  0.64337678  0.12044768  0.72563302    -0.14400
C1258       C  0.89598477  0.12202630  0.69870419     0.23600
C1259       C  0.89092082  0.13890942  0.66439362    -0.24500
C1260       C  0.90955663  0.13536814  0.96493038     0.18500
C1261       C  0.93136166  0.11338665  0.96550660     0.23500
C1262       C  0.93452983  0.09398599  0.66510235    -0.24500
C1263       C  0.91746618  0.09972471  0.69888319     0.18400
F1264       F  0.92201801  0.08397693  0.73230913    -0.14400
F1265       F  0.88000845  0.12673820  0.73211748    -0.16800
F1266       F  0.95064163  0.11122798  0.93482982    -0.16900
F1267       F  0.90830217  0.15365936  0.93334553    -0.14400
C1268       C  0.60858016  0.43813712  0.69494045     0.23600
C1269       C  0.58868134  0.43991775  0.99834638    -0.24500
C1270       C  0.59037028  0.41920974  0.96754269     0.18500
C1271       C  0.61233695  0.39743946  0.96743386     0.23500
C1272       C  0.63214939  0.39535387  0.66410213    -0.24500
C1273       C  0.63036432  0.41614745  0.69508942     0.18400
F1274       F  0.64999516  0.41557952  0.72524421    -0.14400
F1275       F  0.60766422  0.45810950  0.05957381    -0.16800
F1276       F  0.61188008  0.37700608  0.60325047    -0.16800
F1277       F  0.57053940  0.42000421  0.93763602    -0.14400
C1278       C  0.91664807  0.43371905  0.70507865     0.23600
C1279       C  0.93464366  0.43898928  0.00592060    -0.24500
C1280       C  0.92869930  0.42428060  0.97041575     0.18500
C1281       C  0.90658410  0.40272729  0.96843354     0.23500
C1282       C  0.88996660  0.39554335  0.66822299    -0.24500
C1283       C  0.89445932  0.41214091  0.70318415     0.18400
F1284       F  0.87706796  0.40804837  0.73543903    -0.14400
F1285       F  0.92051211  0.44928821  0.73896862    -0.16800
F1286       F  0.90198595  0.38892711  0.93342298    -0.16800
F1287       F  0.94424561  0.43113850  0.93737376    -0.14400
C1288       C  0.86567669  0.87251999  0.99967644     0.80200
N1289       N  0.85566159  0.86256786  0.29745956    -0.78100
C1290       C  0.83414806  0.84153069  0.29625042     0.82700
N1291       N  0.82295796  0.83059359  0.33038229    -0.78000
C1292       C  0.83235827  0.84065520  0.03215394     0.82800
N1293       N  0.85396713  0.86134650  0.03341925    -0.79800
C1294       C  0.65592512  0.87198183  0.99844543     0.80200
N1295       N  0.66521692  0.86067878  0.29732366    -0.78100
C1296       C  0.68618631  0.83924059  0.29727848     0.82700
N1297       N  0.69678074  0.82884037  0.33187839    -0.78000
C1298       C  0.68682882  0.83910488  0.03299754     0.82800
N1299       N  0.66642292  0.86113261  0.03302863    -0.79800
C1300       C  0.86695085  0.66233125  0.99693277     0.80200
N1301       N  0.85697548  0.67303392  0.29520169    -0.78100
C1302       C  0.83557257  0.69411009  0.29492651     0.82700
N1303       N  0.82408261  0.70468429  0.99590834    -0.78000
C1304       C  0.83430308  0.69437933  0.03076939     0.82800
N1305       N  0.85561206  0.67326566  0.03122190    -0.79800
N1306       N  0.51055321  0.97110389  0.33157480    -0.36600
N1307       N  0.96515889  0.51676177  0.33570434    -0.57200
N1308       N  0.51072928  0.56202075  0.32403313    -0.36600
N1309       N  0.55634822  0.51633831  0.32718387    -0.57200
C1310       C  0.98732415  0.95451085  0.34348645     0.27000
C1311       C  0.53496957  0.95463021  0.33837169     0.27000
C1312       C  0.98693926  0.57905319  0.33333583     0.27000
C1313       C  0.53510925  0.57886162  0.32933887     0.27000
C1314       C  0.94790223  0.99243520  0.33337679     0.35600
C1315       C  0.94757466  0.54046326  0.32938753     0.35600
C1316       C  0.57336998  0.99224709  0.32186071     0.35600
C1317       C  0.57352920  0.53994783  0.31896940     0.35600
C1318       C  0.99664612  0.92714237  0.35686465    -0.21900
C1319       C  0.52662154  0.92743171  0.35351851    -0.21900
C1320       C  0.99632506  0.60729547  0.34319898    -0.21900
C1321       C  0.52669536  0.60718721  0.34046688    -0.21900
C1322       C  0.91878267  0.50101483  0.32542838    -0.23000
C1323       C  0.91871733  0.53130210  0.32310806    -0.23000
C1324       C  0.60177857  0.50048234  0.31065850    -0.23000
C1325       C  0.60181892  0.53077998  0.30887244    -0.23000
C1326       C  0.95737334  0.96292673  0.33911871    -0.18300
C1327       C  0.56448437  0.96289850  0.32972388    -0.18300
C1328       C  0.56472809  0.56972473  0.32338063    -0.18300
C1329       C  0.95690744  0.57033710  0.33093629    -0.18300
H1330       H  0.98295214  0.90904325  0.36691447     0.14600
H1331       H  0.54092115  0.90929813  0.36172707     0.14600
H1332       H  0.98273876  0.62626366  0.01648016     0.14600
H1333       H  0.54091969  0.62573615  0.01692394     0.14600
H1334       H  0.89987194  0.98662317  0.32278787     0.12900
H1335       H  0.89956749  0.54498843  0.31750685     0.12900
H1336       H  0.62041412  0.98639815  0.30461592     0.12900
H1337       H  0.62060252  0.54451161  0.30141733     0.12900
H1338       H  0.50997358  0.99158429  0.31804182     0.26100
H1339       H  0.51021680  0.54047481  0.31363441     0.26100
C1340       C  0.65576104  0.66050516  0.99627124     0.80200
N1341       N  0.66693973  0.67096605  0.29536859    -0.78100
C1342       C  0.68834069  0.69186770  0.29610325     0.82700
N1343       N  0.69849684  0.70290946  0.99789895    -0.78000
C1344       C  0.68734288  0.69218674  0.03218030     0.82800
N1345       N  0.66601815  0.67102726  0.03134305    -0.79800
N1346       N  0.79479865  0.82243186  0.21028532    -0.06100
N1347       N  0.79833905  0.84052642  0.24060638    -0.58200
N1348       N  0.81492564  0.80186192  0.11856614    -0.05800
N1349       N  0.83221437  0.80503000  0.08741971    -0.60400
N1350       N  0.79409648  0.82216742  0.11893083    -0.05400
N1351       N  0.79671946  0.83960489  0.08798062    -0.58200
N1352       N  0.81570422  0.80217023  0.20981612    -0.05100
N1353       N  0.83390579  0.80610282  0.23979370    -0.60700
C1354       C  0.82297897  0.83026741  0.25844291     0.96000
C1355       C  0.82055967  0.82860423  0.06877831     0.95800
N1356       N  0.79549357  0.71191431  0.11776537    -0.06300
N1357       N  0.79876113  0.69445266  0.08676008    -0.58800
N1358       N  0.81638654  0.73249898  0.20888799    -0.04400
N1359       N  0.83437455  0.72940266  0.23915512    -0.60100
N1360       N  0.79613782  0.71161656  0.20897508    -0.06300
N1361       N  0.79992436  0.69386991  0.23939021    -0.59100
N1362       N  0.81573717  0.73279385  0.11770155    -0.04100
N1363       N  0.83319073  0.73001543  0.08657863    -0.60200
Mn1364     Mn  0.81674073  0.76732056  0.16380946     1.18400
C1365       C  0.82236888  0.70600241  0.06777890     0.98100
C1366       C  0.82395026  0.70513963  0.25763372     0.98800
N1367       N  0.72501999  0.82134035  0.11971814    -0.06400
N1368       N  0.72181141  0.83895165  0.08908186    -0.62700
N1369       N  0.70477435  0.80042274  0.21072350    -0.05200
N1370       N  0.68702394  0.80353606  0.24150180    -0.63300
N1371       N  0.72511545  0.82121755  0.21070342    -0.05900
N1372       N  0.72162036  0.83894668  0.24136246    -0.62900
N1373       N  0.70471608  0.80051718  0.11947169    -0.04800
N1374       N  0.68726806  0.80350680  0.08860058    -0.63600
Mn1375     Mn  0.75972113  0.82284073  0.16501441     1.10700
C1376       C  0.69814092  0.82763587  0.07019171     0.99400
C1377       C  0.69776458  0.82769547  0.26007214     0.99400
N1378       N  0.72667531  0.71077834  0.20969542    -0.05900
N1379       N  0.72389769  0.69308388  0.24034086    -0.61300
N1380       N  0.70523138  0.73104060  0.11897190    -0.05200
N1381       N  0.68732858  0.72743734  0.08863932    -0.58000
N1382       N  0.72610351  0.71075282  0.11858057    -0.06500
N1383       N  0.72285924  0.69294840  0.08793355    -0.60800
N1384       N  0.70574828  0.73101237  0.21002574    -0.05500
N1385       N  0.68824271  0.72751243  0.24089384    -0.58000
Mn1386     Mn  0.76113022  0.71017361  0.16377417     1.20200
Mn1387     Mn  0.70399893  0.76575157  0.16481354     1.10100
Cl1388     Cl  0.76037959  0.76650965  0.16449069    -0.86000
C1389       C  0.69984136  0.70379846  0.25930482     0.96400
C1390       C  0.69848084  0.70348450  0.06981764     0.96200
C1391       C  0.61472009  0.63356403  0.96107908     0.23600
C1392       C  0.63247056  0.63728237  0.99495140    -0.24500
C1393       C  0.62790977  0.61826050  0.02726124     0.18500
C1394       C  0.60602776  0.59646498  0.02589590     0.23500
C1395       C  0.58818147  0.59328354  0.99245469    -0.24500
C1396       C  0.59378039  0.61032777  0.29169540     0.18400
F1397       F  0.57816808  0.60629674  0.25799844    -0.14400
F1398       F  0.62009051  0.64897382  0.26061237    -0.16800
F1399       F  0.60225274  0.57825153  0.05723185    -0.16800
F1400       F  0.64511176  0.62011114  0.05986112    -0.14400
C1401       C  0.89345516  0.62045612  0.03074733     0.23600
C1402       C  0.89021610  0.63901296  0.99764885    -0.24500
C1403       C  0.91092956  0.63626345  0.29897343     0.18500
C1404       C  0.93250549  0.61408594  0.29938130     0.23500
C1405       C  0.93370090  0.59394516  0.99839253    -0.24500
C1406       C  0.91489984  0.59811711  0.03097939     0.18400
F1407       F  0.91759320  0.58071454  0.06328705    -0.14400
F1408       F  0.87561948  0.62352583  0.06280470    -0.16800
F1409       F  0.95222630  0.61230258  0.26916243    -0.16900
F1410       F  0.91040653  0.65531661  0.26816030    -0.14400
C1411       C  0.60862484  0.93767577  0.02965053     0.23600
C1412       C  0.58758231  0.93954005  0.33041701    -0.24500
C1413       C  0.58926593  0.91860021  0.29991851     0.18500
C1414       C  0.61110262  0.89670593  0.30032077     0.23500
C1415       C  0.63296918  0.89549658  0.99833330    -0.24500
C1416       C  0.63039157  0.91565191  0.02999740     0.18400
F1417       F  0.64917493  0.91440846  0.06106329    -0.14400
F1418       F  0.60621034  0.95806272  0.39162810    -0.16800
F1419       F  0.61425858  0.87853435  0.93586950    -0.16800
F1420       F  0.56966105  0.91939027  0.26973863    -0.14400
C1421       C  0.91767729  0.93223683  0.03908014     0.23600
C1422       C  0.93470495  0.93914428  0.33845398    -0.24500
C1423       C  0.92975993  0.92336793  0.30348021     0.18500
C1424       C  0.90753024  0.90192686  0.30149001     0.23500
C1425       C  0.88954366  0.89533419  0.00179542    -0.24500
C1426       C  0.89540398  0.91072738  0.03738878     0.18400
F1427       F  0.87931401  0.90551974  0.07053562    -0.14400
F1428       F  0.92292721  0.94657285  0.07358826    -0.16800
F1429       F  0.90377055  0.88712981  0.26701507    -0.16800
F1430       F  0.94647190  0.92898516  0.27102357    -0.14400
C1431       C  0.86602532  0.87272963  0.33275289     0.80200
N1432       N  0.85614325  0.86254117  0.63065248    -0.78100
C1433       C  0.83453401  0.84159174  0.62925728     0.82700
N1434       N  0.82321516  0.83062195  0.66329053    -0.78000
C1435       C  0.83315446  0.84056115  0.36552764     0.82800
N1436       N  0.85458272  0.86144458  0.36660198    -0.79800
C1437       C  0.65468145  0.87188543  0.33189850     0.80200
N1438       N  0.66539817  0.86052643  0.62992087    -0.78100
C1439       C  0.68598433  0.83870953  0.62991956     0.82700
N1440       N  0.69645183  0.82820638  0.66455658    -0.78000
C1441       C  0.68646302  0.83987683  0.36652391     0.82800
N1442       N  0.66550886  0.86140677  0.36653447    -0.79800
C1443       C  0.86756382  0.66254981  0.32997118     0.80200
N1444       N  0.85698483  0.67271286  0.62848276    -0.78100
C1445       C  0.83535654  0.69355529  0.62810985     0.82700
N1446       N  0.82472202  0.70487954  0.32944047    -0.78000
C1447       C  0.83518964  0.69459277  0.36417960     0.82800
N1448       N  0.85647536  0.67346472  0.36440108    -0.79800
N1449       N  0.51109817  0.97134735  0.66607877    -0.36600
N1450       N  0.96549473  0.51677621  0.66984301    -0.57200
N1451       N  0.51066538  0.56227010  0.65838514    -0.36600
N1452       N  0.55655750  0.51663685  0.66183843    -0.57200
C1453       C  0.98763960  0.95450392  0.67648688     0.27000
C1454       C  0.53558012  0.95486650  0.67248800     0.27000
C1455       C  0.98731108  0.57916256  0.66630465     0.27000
C1456       C  0.53503644  0.57912237  0.66379762     0.27000
C1457       C  0.94811282  0.99260636  0.66853677     0.35600
C1458       C  0.94792133  0.54050571  0.66360905     0.35600
C1459       C  0.57371938  0.99248595  0.65475944     0.35600
C1460       C  0.57370451  0.54032892  0.65388789     0.35600
C1461       C  0.99715170  0.92701484  0.68917073    -0.21900
C1462       C  0.52727965  0.92750788  0.68718578    -0.21900
C1463       C  0.99664489  0.60755446  0.67541827    -0.21900
C1464       C  0.52659775  0.60735549  0.67526876    -0.21900
C1465       C  0.91894505  0.50116054  0.66059630    -0.23000
C1466       C  0.91895608  0.53144314  0.65811357    -0.23000
C1467       C  0.60223475  0.50099604  0.64622452    -0.23000
C1468       C  0.60213631  0.53127799  0.64432918    -0.23000
C1469       C  0.95762733  0.96299820  0.67325144    -0.18300
C1470       C  0.56506872  0.96320031  0.66355137    -0.18300
C1471       C  0.56469276  0.57010501  0.65773122    -0.18300
C1472       C  0.95734198  0.57034832  0.66435946    -0.18300
H1473       H  0.98360865  0.90886208  0.69941150     0.14600
H1474       H  0.54160746  0.90928259  0.69494006     0.14600
H1475       H  0.98272321  0.62609672  0.35117274     0.14600
H1476       H  0.54093882  0.62582506  0.34667912     0.14600
H1477       H  0.89992242  0.98696590  0.65915826     0.12900
H1478       H  0.89981002  0.54521089  0.65282748     0.12900
H1479       H  0.62041878  0.98656836  0.63589482     0.12900
H1480       H  0.62090354  0.54507089  0.63700499     0.12900
H1481       H  0.51040881  0.99193985  0.65289945     0.26100
H1482       H  0.51021520  0.54082395  0.64765216     0.26100
C1483       C  0.65557304  0.65997958  0.32943008     0.80200
N1484       N  0.66665529  0.67148238  0.62830160    -0.78100
C1485       C  0.68827667  0.69217381  0.62893505     0.82700
N1486       N  0.69863484  0.70205618  0.33104709    -0.78000
C1487       C  0.68750591  0.69135076  0.36530889     0.82800
N1488       N  0.66598268  0.67037182  0.36451043    -0.79800
N1489       N  0.79502986  0.82233333  0.54344291    -0.06100
N1490       N  0.79871986  0.84059623  0.57356406    -0.58200
N1491       N  0.81546500  0.80179754  0.45193351    -0.05800
N1492       N  0.83292904  0.80501582  0.42095794    -0.60400
N1493       N  0.79460787  0.82208402  0.45211681    -0.05400
N1494       N  0.79739614  0.83955054  0.42121919    -0.58200
N1495       N  0.81588535  0.80202008  0.54310740    -0.05100
N1496       N  0.83417927  0.80606954  0.57295185    -0.60700
C1497       C  0.82339878  0.83038194  0.59138819     0.96000
C1498       C  0.82137220  0.82861455  0.40224830     0.95800
N1499       N  0.79604264  0.71181917  0.45095195    -0.06300
N1500       N  0.79952695  0.69439111  0.41996325    -0.58800
N1501       N  0.81644696  0.73226549  0.54221045    -0.04400
N1502       N  0.83436686  0.72900840  0.57251876    -0.60100
N1503       N  0.79619850  0.71138156  0.54205895    -0.06300
N1504       N  0.79990809  0.69348609  0.57233624    -0.59100
N1505       N  0.81627437  0.73271187  0.45112801    -0.04100
N1506       N  0.83392861  0.72998591  0.42020808    -0.60200
Mn1507     Mn  0.81703569  0.76718453  0.49718431     1.18400
C1508       C  0.82325299  0.70597394  0.40128232     0.98100
C1509       C  0.82389459  0.70465887  0.59076246     0.98800
N1510       N  0.72532416  0.82136069  0.45249543    -0.06400
N1511       N  0.72179717  0.83936525  0.42231264    -0.62700
N1512       N  0.70486143  0.80012999  0.54325172    -0.05200
N1513       N  0.68702044  0.80311629  0.57396352    -0.63300
N1514       N  0.72518605  0.82094678  0.54343972    -0.05900
N1515       N  0.72155978  0.83858007  0.57416745    -0.62900
N1516       N  0.70501313  0.80053819  0.45213041    -0.04800
N1517       N  0.68723158  0.80394986  0.42168427    -0.63600
Mn1518     Mn  0.76000158  0.82271904  0.49796285     1.10700
C1519       C  0.69787597  0.82833610  0.40364997     0.99400
C1520       C  0.69767151  0.82723589  0.59271405     0.99400
N1521       N  0.72674441  0.71060426  0.54234341    -0.05900
N1522       N  0.72396462  0.69311420  0.57321128    -0.61300
N1523       N  0.70568320  0.73084591  0.45139971    -0.05200
N1524       N  0.68765385  0.72696409  0.42126917    -0.58000
N1525       N  0.72653352  0.71053078  0.45120762    -0.06500
N1526       N  0.72314489  0.69242967  0.42089688    -0.60800
N1527       N  0.70577571  0.73079299  0.54240417    -0.05500
N1528       N  0.68822498  0.72744344  0.57326089    -0.58000
Mn1529     Mn  0.76140593  0.71000571  0.49663331     1.20200
Mn1530     Mn  0.70425276  0.76557224  0.49723985     1.10100
Cl1531     Cl  0.76065398  0.76636643  0.49734122    -0.86000
C1532       C  0.69985261  0.70389601  0.59200891     0.96400
C1533       C  0.69867651  0.70279499  0.40281815     0.96200
C1534       C  0.61557674  0.63220742  0.29319613     0.23600
C1535       C  0.63215395  0.63685455  0.32795907    -0.24500
C1536       C  0.62634716  0.61877024  0.36090518     0.18500
C1537       C  0.60458272  0.59686599  0.35913612     0.23500
C1538       C  0.58816804  0.59261069  0.32462846    -0.24500
C1539       C  0.59248145  0.61169600  0.62604942     0.18400
F1540       F  0.57580088  0.60838818  0.59313412    -0.14400
F1541       F  0.61777116  0.65118158  0.59514511    -0.16800
F1542       F  0.59941810  0.57971075  0.39118820    -0.16800
F1543       F  0.64209611  0.62172162  0.39465414    -0.14400
C1544       C  0.89271185  0.61942175  0.36243207     0.23600
C1545       C  0.89064512  0.63914836  0.33043293    -0.24500
C1546       C  0.90857273  0.63332458  0.62988466     0.18500
C1547       C  0.93021563  0.61119905  0.63034355     0.23500
C1548       C  0.93399309  0.59404610  0.33084416    -0.24500
C1549       C  0.91415779  0.59710863  0.36256187     0.18400
F1550       F  0.91577412  0.57858461  0.39387939    -0.14400
F1551       F  0.87362531  0.62126952  0.39335603    -0.16800
F1552       F  0.94723883  0.60664306  0.59780423    -0.16900
F1553       F  0.90508259  0.64923988  0.59637772    -0.14400
C1554       C  0.60769028  0.93807163  0.36173608     0.23600
C1555       C  0.58827783  0.93988325  0.66389314    -0.24500
C1556       C  0.58886221  0.91810506  0.63436117     0.18500
C1557       C  0.61074141  0.89624297  0.63433796     0.23500
C1558       C  0.63145644  0.89510989  0.33164683    -0.24500
C1559       C  0.62933250  0.91595676  0.36253948     0.18400
F1560       F  0.64853586  0.91537738  0.39317291    -0.14400
F1561       F  0.60936617  0.96013162  0.72271630    -0.16800
F1562       F  0.61180902  0.87665135  0.27046084    -0.16800
F1563       F  0.56804634  0.91797039  0.60563870    -0.14400
C1564       C  0.91757465  0.93283131  0.37190605     0.23600
C1565       C  0.93495233  0.93918777  0.67241571    -0.24500
C1566       C  0.93055675  0.92302264  0.63760288     0.18500
C1567       C  0.90844739  0.90145535  0.63544406     0.23500
C1568       C  0.88974068  0.89568374  0.33471404    -0.24500
C1569       C  0.89522022  0.91143339  0.37011983     0.18400
F1570       F  0.87865704  0.90668254  0.40297595    -0.14400
F1571       F  0.92250253  0.94745738  0.40628411    -0.16800
F1572       F  0.90529416  0.88620496  0.60120763    -0.16800
F1573       F  0.94760549  0.92846966  0.60540279    -0.14400
C1574       C  0.86642959  0.87259399  0.66605707     0.80200
N1575       N  0.85539704  0.86242054  0.96429708    -0.78100
C1576       C  0.83370621  0.84157237  0.96287819     0.82700
N1577       N  0.82225802  0.83073960  0.99692278    -0.78000
C1578       C  0.83333156  0.84047080  0.69852893     0.82800
N1579       N  0.85483773  0.86127566  0.69980474    -0.79800
C1580       C  0.65516861  0.87202112  0.66448787     0.80200
N1581       N  0.66631977  0.86067542  0.96385124    -0.78100
C1582       C  0.68674955  0.83871875  0.96373493     0.82700
N1583       N  0.69699361  0.82792018  0.99833119    -0.78000
C1584       C  0.68640374  0.83952212  0.69919982     0.82800
N1585       N  0.66589818  0.86148261  0.69914690    -0.79800
C1586       C  0.86779794  0.66245595  0.66326071     0.80200
N1587       N  0.85655485  0.67282540  0.96205121    -0.78100
C1588       C  0.83516629  0.69391810  0.96152225     0.82700
N1589       N  0.82439947  0.70430874  0.66257190    -0.78000
C1590       C  0.83500509  0.69426032  0.69735809     0.82800
N1591       N  0.85659977  0.67342721  0.69763294    -0.79800
N1592       N  0.51141771  0.97105226  0.00013751    -0.36600
N1593       N  0.96512521  0.51663882  0.00395384    -0.57200
N1594       N  0.51078000  0.56226885  0.99254676    -0.36600
N1595       N  0.55682862  0.51675208  0.99556854    -0.57200
C1596       C  0.98703741  0.95430716  0.00901940     0.27000
C1597       C  0.53586462  0.95423417  0.00529947     0.27000
C1598       C  0.98668488  0.57904445  0.99942452     0.27000
C1599       C  0.53515352  0.57909343  0.99809358     0.27000
C1600       C  0.94744192  0.99239541  0.00097728     0.35600
C1601       C  0.94732795  0.54030860  0.99828503     0.35600
C1602       C  0.57436229  0.99245660  0.99069665     0.35600
C1603       C  0.57387241  0.54048073  0.98744625     0.35600
C1604       C  0.99658589  0.92680618  0.02162017    -0.21900
C1605       C  0.52742980  0.92624010  0.01752105    -0.21900
C1606       C  0.99621171  0.60741014  0.00832868    -0.21900
C1607       C  0.52669748  0.60717537  0.01023210    -0.21900
C1608       C  0.91851855  0.50080069  0.99595021    -0.23000
C1609       C  0.91833728  0.53107756  0.99350405    -0.23000
C1610       C  0.60251858  0.50122180  0.97979430    -0.23000
C1611       C  0.60230730  0.53149925  0.97775028    -0.23000
C1612       C  0.95701330  0.96281637  0.00595529    -0.18300
C1613       C  0.56549685  0.96294964  0.99781578    -0.18300
C1614       C  0.56482812  0.57022626  0.99158913    -0.18300
C1615       C  0.95663921  0.57023093  0.99856732    -0.18300
H1616       H  0.98307609  0.90865903  0.03195521     0.14600
H1617       H  0.54166933  0.90763001  0.02383269     0.14600
H1618       H  0.98300857  0.62644882  0.68288177     0.14600
H1619       H  0.54082038  0.62597182  0.68167624     0.14600
H1620       H  0.89931263  0.98655674  0.99130619     0.12900
H1621       H  0.89903950  0.54470621  0.98858589     0.12900
H1622       H  0.62169179  0.98689202  0.97465915     0.12900
H1623       H  0.62103096  0.54533821  0.97037874     0.12900
H1624       H  0.51084897  0.99224844  0.98905872     0.26100
H1625       H  0.51031307  0.54080303  0.98129633     0.26100
C1626       C  0.65528000  0.66064288  0.66243738     0.80200
N1627       N  0.66710276  0.67149245  0.96218260    -0.78100
C1628       C  0.68837157  0.69255781  0.96290094     0.82700
N1629       N  0.69872244  0.70231971  0.66386707    -0.78000
C1630       C  0.68751329  0.69178124  0.69820935     0.82800
N1631       N  0.66581799  0.67099358  0.69746407    -0.79800
N1632       N  0.79484459  0.82247556  0.87642611    -0.06100
N1633       N  0.79820188  0.84055564  0.90681431    -0.58200
N1634       N  0.81535124  0.80175802  0.78488125    -0.05800
N1635       N  0.83287405  0.80492567  0.75395520    -0.60400
N1636       N  0.79448767  0.82203907  0.78494887    -0.05400
N1637       N  0.79733953  0.83945508  0.75400123    -0.58200
N1638       N  0.81574516  0.80220658  0.87618518    -0.05100
N1639       N  0.83377002  0.80614254  0.90636260    -0.60700
C1640       C  0.82273423  0.83029992  0.92492709     0.96000
C1641       C  0.82135618  0.82848841  0.73513358     0.95800
N1642       N  0.79583658  0.71180943  0.78414090    -0.06300
N1643       N  0.79927312  0.69431520  0.75319003    -0.58800
N1644       N  0.81639197  0.73245471  0.87540721    -0.04400
N1645       N  0.83429683  0.72927342  0.90575511    -0.60100
N1646       N  0.79612776  0.71158556  0.87533550    -0.06300
N1647       N  0.79981044  0.69377976  0.90570297    -0.59100
N1648       N  0.81613166  0.73264934  0.78424919    -0.04100
N1649       N  0.83378387  0.72979313  0.75333029    -0.60200
Mn1650     Mn  0.81694495  0.76726432  0.83026418     1.18400
C1651       C  0.82305138  0.70577000  0.73445964     0.98100
C1652       C  0.82379602  0.70497365  0.92409723     0.98800
N1653       N  0.72515368  0.82135601  0.78548375    -0.06400
N1654       N  0.72167999  0.83919598  0.75510926    -0.62700
N1655       N  0.70493542  0.80032027  0.87662428    -0.05200
N1656       N  0.68743500  0.80316686  0.90770867    -0.63300
N1657       N  0.72522151  0.82117065  0.87655760    -0.05900
N1658       N  0.72190312  0.83869398  0.90746476    -0.62900
N1659       N  0.70484384  0.80052908  0.78526218    -0.04800
N1660       N  0.68714724  0.80375440  0.75467265    -0.63600
Mn1661     Mn  0.75989123  0.82281367  0.83089242     1.10700
C1662       C  0.69782596  0.82804494  0.73641499     0.99400
C1663       C  0.69825508  0.82723144  0.92642015     0.99400
N1664       N  0.72668277  0.71081318  0.87598478    -0.05900
N1665       N  0.72398990  0.69343279  0.90699559    -0.61300
N1666       N  0.70544617  0.73088392  0.78485308    -0.05200
N1667       N  0.68757116  0.72719470  0.75450340    -0.58000
N1668       N  0.72630381  0.71057536  0.78460572    -0.06500
N1669       N  0.72307131  0.69267879  0.75403107    -0.60800
N1670       N  0.70575804  0.73104887  0.87609746    -0.05500
N1671       N  0.68835222  0.72785545  0.90714926    -0.58000
Mn1672     Mn  0.76125240  0.71010514  0.83000725     1.20200
Mn1673     Mn  0.70414125  0.76569053  0.83066499     1.10100
Cl1674     Cl  0.76054273  0.76645936  0.83051894    -0.86000
C1675       C  0.70000083  0.70434289  0.92597023     0.96400
C1676       C  0.69871046  0.70317688  0.73580729     0.96200
C1677       C  0.61426281  0.63363330  0.62721039     0.23600
C1678       C  0.63187165  0.63754339  0.66119595    -0.24500
C1679       C  0.62721239  0.61867199  0.69363299     0.18500
C1680       C  0.60552889  0.59670266  0.69219712     0.23500
C1681       C  0.58801239  0.59316105  0.65852966    -0.24500
C1682       C  0.59269851  0.61185963  0.96001980     0.18400
F1683       F  0.57590744  0.60875825  0.92717664    -0.14400
F1684       F  0.61834931  0.65107182  0.92900036    -0.16800
F1685       F  0.60155580  0.57874345  0.72374972    -0.16800
F1686       F  0.64409929  0.62086770  0.72648369    -0.14400
C1687       C  0.89651325  0.62248150  0.69814177     0.23600
C1688       C  0.89121993  0.63921308  0.66376250    -0.24500
C1689       C  0.90957532  0.63505295  0.96532575     0.18500
C1690       C  0.93124431  0.61295816  0.96593132     0.23500
C1691       C  0.93450187  0.59400666  0.66415468    -0.24500
C1692       C  0.91780552  0.60002516  0.69815081     0.18400
F1693       F  0.92249519  0.58435378  0.73160511    -0.14400
F1694       F  0.88091342  0.62745733  0.73179995    -0.16800
F1695       F  0.95012222  0.61026217  0.93488368    -0.16900
F1696       F  0.90808698  0.65296671  0.93337646    -0.14400
C1697       C  0.60970021  0.93935930  0.69373088     0.23600
C1698       C  0.58878163  0.93969781  0.99806453    -0.24500
C1699       C  0.59102721  0.91951899  0.96671711     0.18500
C1700       C  0.61304404  0.89780319  0.96660857     0.23500
C1701       C  0.63226271  0.89552477  0.66426781    -0.24500
C1702       C  0.63145125  0.91732254  0.69404082     0.18400
F1703       F  0.65203004  0.91768367  0.72305740    -0.14400
F1704       F  0.60672777  0.95698361  0.06029187    -0.16800
F1705       F  0.61030086  0.87528632  0.60560212    -0.16800
F1706       F  0.57169766  0.92078202  0.93626265    -0.14400
C1707       C  0.91725329  0.93324082  0.70547404     0.23600
C1708       C  0.93435836  0.93899385  0.00537588    -0.24500
C1709       C  0.92906130  0.92353093  0.97024715     0.18500
C1710       C  0.90698279  0.90193918  0.96837681     0.23500
C1711       C  0.89012982  0.89556288  0.66826263    -0.24500
C1712       C  0.89497066  0.91176605  0.70347180     0.18400
F1713       F  0.87778085  0.90744284  0.73586126    -0.14400
F1714       F  0.92147877  0.94838261  0.73962709    -0.16800
F1715       F  0.90299288  0.88738467  0.93376844    -0.16800
F1716       F  0.94522604  0.92965704  0.93747157    -0.14400
loop_ 
_geom_bond_atom_site_label_1 
_geom_bond_atom_site_label_2 
_geom_bond_distance 
_geom_bond_site_symmetry_2 
_ccdc_geom_bond_type 
C1            N6   1.360   1_556  A
C1          N288   1.366       .  A
C1          C138   1.498   1_556  S
N2            C3   1.363       .  A
N2          C144   1.366       .  A
C3            N4   1.357       .  A
C3           C67   1.470       .  S
N4          C148   1.356       .  A
C5            N6   1.355       .  A
C5          N290   1.356   1_554  A
C5           C68   1.460       .  S
C7           N12   1.362   1_556  A
C7          N294   1.360       .  A
C7          C128   1.485       .  S
N8            C9   1.357       .  A
N8          C150   1.360       .  A
C9           N10   1.356       .  A
C9           C90   1.459       .  S
N10         C154   1.356       .  A
C11          N12   1.359       .  A
C11         N296   1.357   1_554  A
C11          C89   1.462       .  S
C13          N18   1.360   1_556  A
C13         N300   1.362       .  A
C13         C115   1.485       .  S
N14          C15   1.358       .  A
N14         C156   1.362       .  A
C15         N159   1.356       .  A
C15          C79   1.462       .  S
N16          C17   1.356   1_556  A
N16         C301   1.356       .  A
C17          N18   1.356       .  A
C17          C78   1.460       .  S
N19          C24   1.353       .  A
N19         C881   1.353   1_455  A
N19          H51   1.036       .  S
N20          C28   1.352       .  A
N20         C456   1.353   1_545  A
N21          C26   1.354       .  A
N21         C883   1.353   1_455  A
N21          H52   1.035       .  S
N22          C30   1.351       .  A
N22         C458   1.352   1_545  A
C23         N877   1.353       .  A
C23          C31   1.386       .  A
C23          C39   1.415       .  A
C24          C40   1.417       .  A
C24          C32   1.387       .  A
C25         N879   1.352       .  A
C25          C33   1.387       .  A
C25          C42   1.414       .  A
C26          C41   1.417       .  A
C26          C34   1.387       .  A
C27         N449   1.352       .  A
C27          C39   1.415       .  A
C27         C464   1.386       .  A
C28          C42   1.415       .  A
C28          C36   1.386       .  A
C29         N451   1.352       .  A
C29          C40   1.415       .  A
C29         C466   1.387       .  A
C30          C38   1.386       .  A
C30          C41   1.413       .  A
C31         C890   1.376       .  A
C31          H43   1.082       .  S
C32         C889   1.376   1_455  A
C32          H44   1.082       .  S
C33         C892   1.374       .  A
C33         H188   1.082       .  S
C34         C891   1.374   1_455  A
C34         H189   1.082       .  S
C35          C36   1.372       .  A
C35         C456   1.386   1_545  A
C35         H476   1.082   1_545  S
C36          H48   1.082       .  S
C37          C38   1.372       .  A
C37         C458   1.387   1_545  A
C37         H478   1.082   1_545  S
C38          H50   1.082       .  S
C39         C135   1.487       .  S
C40         C125   1.487       .  S
C41         C251   1.486       .  S
C42         C261   1.485       .  S
H45         C319   1.082       .  S
H46         C320   1.082       .  S
H47         C464   1.082       .  S
H49         C466   1.082       .  S
C53          N58   1.365   1_556  A
C53         N340   1.359       .  A
C53         C105   1.495       .  S
N54          C55   1.354       .  A
N54         C196   1.358       .  A
C55         N199   1.355       .  A
C55         C102   1.456       .  S
N56          C57   1.357   1_556  A
N56         C341   1.356       .  A
C57          N58   1.361       .  A
C57         C103   1.467       .  S
N59          N60   1.323       .  A
N59          N65   1.317       .  A
N59         Mn88   2.214       .  S
N60          C67   1.353       .  A
N61          N63   1.316       .  A
N61          N62   1.320       .  A
N61         Mn77   2.199       .  S
N62          C68   1.350       .  A
N63          N64   1.321       .  A
N63         Mn88   2.203       .  S
N64          C68   1.351       .  A
N65          N66   1.323       .  A
N65         Mn77   2.216       .  S
N66          C67   1.353       .  A
N69          N75   1.316       .  A
N69          N70   1.321       .  A
N69         Mn99   2.198       .  S
N70          C78   1.351       .  A
N71          N72   1.321       .  A
N71          N73   1.316       .  A
N71         Mn77   2.202       .  S
N72          C79   1.351       .  A
N73          N74   1.322       .  A
N73         Mn99   2.209       .  S
N74          C79   1.352       .  A
N75          N76   1.321       .  A
N75         Mn77   2.208       .  S
N76          C78   1.351       .  A
Mn77       Cl101   2.549       .  S
N80          N81   1.321       .  A
N80          N86   1.317       .  A
N80         Mn88   2.207       .  S
N81          C89   1.351       .  A
N82          N84   1.317       .  A
N82          N83   1.321       .  A
N82        Mn100   2.205       .  S
N83          C90   1.351       .  A
N84          N85   1.320       .  A
N84         Mn88   2.202       .  S
N85          C90   1.350       .  A
N86          N87   1.321       .  A
N86        Mn100   2.205       .  S
N87          C89   1.352       .  A
Mn88       Cl101   2.551       .  S
N91          N92   1.320       .  A
N91          N97   1.316       .  A
N91         Mn99   2.197       .  S
N92         C102   1.350       .  A
N93          N94   1.322       .  A
N93          N95   1.316       .  A
N93        Mn100   2.209       .  S
N94         C103   1.353       .  A
N95          N96   1.322       .  A
N95         Mn99   2.211       .  S
N96         C103   1.352       .  A
N97          N98   1.320       .  A
N97        Mn100   2.201       .  S
N98         C102   1.350       .  A
Mn99       Cl101   2.551       .  S
Mn100      Cl101   2.551       .  S
C104        C105   1.416       .  A
C104        C395   1.401       .  A
C104        F397   1.358       .  S
C105        C106   1.412   1_556  A
C106        C107   1.400       .  A
C106        F113   1.357       .  S
C107        C108   1.402   1_554  A
C107        F112   1.358       .  S
C108        C327   1.488       .  S
C108        C395   1.401       .  A
C109        C247   1.399       .  A
C109        C251   1.401       .  A
C109        F110   1.358       .  S
F111        C247   1.358       .  S
C114        C115   1.410   1_554  A
C114        C119   1.399       .  A
C114        F121   1.358       .  S
C115        C402   1.409       .  A
C116        C117   1.398       .  A
C116        C258   1.412       .  A
C116        F123   1.357       .  S
C117        C261   1.402       .  A
C117        F122   1.358       .  S
C118        C328   1.494       .  S
C118        C119   1.405   1_556  A
C118        C403   1.406       .  A
C119        F120   1.358       .  S
C124        C129   1.400       .  A
C124        C411   1.404   1_554  A
C124        F417   1.358       .  S
C125        C126   1.403       .  A
C125        C267   1.404       .  A
C126        C127   1.399       .  A
C126        F133   1.358       .  S
C127        C271   1.410       .  A
C127        F275   1.358       .  S
C128        C129   1.410   1_556  A
C128        C413   1.410       .  A
C129        F130   1.358       .  S
F131        C267   1.358       .  S
F132        C413   1.358       .  S
C134        C139   1.402       .  A
C134        C421   1.401       .  A
C134        F141   1.358       .  S
C135        C136   1.402       .  A
C135        C277   1.402       .  A
C136        C137   1.399       .  A
C136        F143   1.358       .  S
C137        C281   1.411       .  A
C137        F142   1.357       .  S
C138        C139   1.417       .  A
C138        C423   1.413   1_554  A
C139        F140   1.358       .  S
C144        N149   1.359       .  A
C144        C281   1.494       .  S
N145        C287   1.365       .  A
N145        C146   1.362       .  A
C146        N147   1.357       .  A
C146        C210   1.468       .  S
N147        C291   1.356       .  A
C148        N149   1.354       .  A
C148        C211   1.458       .  S
C150        N155   1.360       .  A
C150        C271   1.483       .  S
N151        C293   1.361       .  A
N151        C152   1.357       .  A
C152        N153   1.356       .  A
C152        C233   1.461       .  S
N153        C297   1.357       .  A
C154        N155   1.357       .  A
C154        C232   1.460       .  S
C156        N161   1.360       .  A
C156        C258   1.490       .  S
N157        C299   1.361       .  A
N157        C158   1.358       .  A
C158        N302   1.357       .  A
C158        C222   1.461       .  S
N159        C160   1.355       .  A
C160        N161   1.356       .  A
C160        C221   1.458       .  S
N162        C167   1.353       .  A
N162       C1024   1.353   1_455  A
N162        H194   1.036       .  S
N163        C599   1.353   1_545  A
N163        C171   1.353       .  A
N164        C169   1.354       .  A
N164       C1026   1.353   1_455  A
N164        H195   1.035       .  S
N165        C601   1.352   1_545  A
N165        C173   1.352       .  A
C166       N1020   1.353       .  A
C166        C174   1.387       .  A
C166        C182   1.416       .  A
C167        C183   1.417       .  A
C167        C175   1.388       .  A
C168       N1022   1.353       .  A
C168        C176   1.387       .  A
C168        C185   1.416       .  A
C169        C184   1.417       .  A
C169        C177   1.387       .  A
C170        N592   1.353       .  A
C170        C182   1.416       .  A
C170        C607   1.386       .  A
C171        C185   1.417       .  A
C171        C179   1.387       .  A
C172        N594   1.352       .  A
C172        C609   1.387       .  A
C172        C183   1.416       .  A
C173        C181   1.386       .  A
C173        C184   1.414       .  A
C174       C1033   1.376       .  A
C174        H186   1.082       .  S
C175       C1032   1.376   1_455  A
C175        H187   1.082       .  S
C176       C1035   1.374       .  A
C176        H331   1.082       .  S
C177       C1034   1.374   1_455  A
C177        H332   1.082       .  S
C178        C599   1.386   1_545  A
C178        C179   1.372       .  A
C178        H619   1.082   1_545  S
C179        H191   1.082       .  S
C180        C601   1.387   1_545  A
C180        C181   1.373       .  A
C180        H621   1.082   1_545  S
C181        H193   1.082       .  S
C182        C278   1.486       .  S
C183        C268   1.489       .  S
C184        C394   1.487       .  S
C185        C404   1.490       .  S
H190        C607   1.082       .  S
H192        C609   1.082       .  S
C196        N201   1.364       .  A
C196        C248   1.491       .  S
N197        C339   1.359       .  A
N197        C198   1.355       .  A
C198        N342   1.355       .  A
C198        C245   1.456       .  S
N199        C200   1.356       .  A
C200        N201   1.361       .  A
C200        C246   1.464       .  S
N202        N203   1.322       .  A
N202        N208   1.317       .  A
N202       Mn231   2.212       .  S
N203        C210   1.353       .  A
N204        N206   1.316       .  A
N204        N205   1.320       .  A
N204       Mn220   2.197       .  S
N205        C211   1.350       .  A
N206        N207   1.321       .  A
N206       Mn231   2.202       .  S
N207        C211   1.351       .  A
N208        N209   1.322       .  A
N208       Mn220   2.211       .  S
N209        C210   1.353       .  A
N212        N218   1.316       .  A
N212        N213   1.320       .  A
N212       Mn242   2.197       .  S
N213        C221   1.350       .  A
N214        N215   1.321       .  A
N214        N216   1.316       .  A
N214       Mn220   2.200       .  S
N215        C222   1.351       .  A
N216        N217   1.321       .  A
N216       Mn242   2.207       .  S
N217        C222   1.352       .  A
N218        N219   1.321       .  A
N218       Mn220   2.205       .  S
N219        C221   1.351       .  A
Mn220      Cl244   2.549       .  S
N223        N224   1.321       .  A
N223        N229   1.316       .  A
N223       Mn231   2.204       .  S
N224        C232   1.351       .  A
N225        N227   1.316       .  A
N225        N226   1.321       .  A
N225       Mn243   2.207       .  S
N226        C233   1.352       .  A
N227        N228   1.320       .  A
N227       Mn231   2.201       .  S
N228        C233   1.351       .  A
N229        N230   1.321       .  A
N229       Mn243   2.202       .  S
N230        C232   1.351       .  A
Mn231      Cl244   2.549       .  S
N234        N235   1.320       .  A
N234        N240   1.316       .  A
N234       Mn242   2.197       .  S
N235        C245   1.350       .  A
N236        N237   1.322       .  A
N236        N238   1.316       .  A
N236       Mn243   2.208       .  S
N237        C246   1.352       .  A
N238        N239   1.322       .  A
N238       Mn242   2.208       .  S
N239        C246   1.352       .  A
N240        N241   1.320       .  A
N240       Mn243   2.200       .  S
N241        C245   1.350       .  A
Mn242      Cl244   2.549       .  S
Mn243      Cl244   2.550       .  S
C247        C248   1.415       .  A
C248        C249   1.411       .  A
C249        C250   1.399       .  A
C249        F256   1.357       .  S
C250        C251   1.402       .  A
C250        F255   1.358       .  S
C252        C390   1.401       .  A
C252        C394   1.401       .  A
C252        F253   1.358       .  S
F254        C390   1.358       .  S
C257        C258   1.414       .  A
C257        C262   1.399       .  A
C257        F264   1.358       .  S
C259        C401   1.409       .  A
C259        C260   1.399       .  A
C259        F266   1.358       .  S
C260        C404   1.405       .  A
C260        F265   1.358       .  S
C261        C262   1.401       .  A
C262        F263   1.358       .  S
C267        C272   1.399       .  A
C268        C410   1.404       .  A
C268        C269   1.404       .  A
C269        C270   1.399       .  A
C269        F276   1.358       .  S
C270        C414   1.410       .  A
C270        F418   1.358       .  S
C271        C272   1.410       .  A
C272        F273   1.358       .  S
F274        C410   1.358       .  S
C277        C282   1.402       .  A
C277        F284   1.358       .  S
C278        C420   1.400       .  A
C278        C279   1.401       .  A
C279        C280   1.400       .  A
C279        F286   1.358       .  S
C280        C424   1.413       .  A
C280        F285   1.357       .  S
C281        C282   1.417       .  A
C282        F283   1.358       .  S
C287        N292   1.360       .  A
C287        C424   1.497       .  S
N288        C289   1.363       .  A
C289        N290   1.357       .  A
C289        C353   1.470       .  S
C291        N292   1.355       .  A
C291        C354   1.461       .  S
C293        N298   1.361       .  A
C293        C414   1.484       .  S
N294        C295   1.356       .  A
C295        N296   1.356       .  A
C295        C376   1.460       .  S
C297        N298   1.358       .  A
C297        C375   1.461       .  S
C299        N304   1.360       .  A
C299        C401   1.485       .  S
N300        C301   1.359       .  A
C301        C365   1.461       .  S
N302        C303   1.356       .  A
C303        N304   1.356       .  A
C303        C364   1.460       .  S
N305        C310   1.354   1_556  A
N305       C1167   1.353   1_456  A
N305        H337   1.036       .  S
N306        C742   1.354   1_545  A
N306        C314   1.354   1_554  A
N307        C312   1.355       .  A
N307       C1169   1.354   1_455  A
N307        H338   1.036       .  S
N308        C744   1.352   1_545  A
N308        C316   1.352       .  A
C309       N1163   1.353       .  A
C309        C317   1.387       .  A
C309        C325   1.417       .  A
C310        C326   1.418   1_554  A
C310        C318   1.388       .  A
C311       N1165   1.354   1_554  A
C311        C319   1.387       .  A
C311        C328   1.418   1_554  A
C312        C327   1.418       .  A
C312        C320   1.387   1_556  A
C313        N735   1.354       .  A
C313        C325   1.417       .  A
C313        C750   1.386   1_554  A
C314        C328   1.418       .  A
C314        C322   1.387       .  A
C315        N737   1.352       .  A
C315        C752   1.387       .  A
C315        C326   1.416       .  A
C316        C324   1.386       .  A
C316        C327   1.414       .  A
C317       C1176   1.376       .  A
C317        H329   1.082       .  S
C318       C1175   1.376   1_455  A
C318        H330   1.082       .  S
C319       C1178   1.374       .  A
C320       C1177   1.374   1_455  A
C321        C742   1.386   1_546  A
C321        C322   1.372       .  A
C321        H762   1.082   1_545  S
C322        H334   1.082       .  S
C323        C744   1.387   1_545  A
C323        C324   1.373       .  A
C323        H764   1.082   1_545  S
C324        H336   1.082       .  S
C325        C421   1.489       .  S
C326        C411   1.489       .  S
H333        C750   1.082       .  S
H335        C752   1.082       .  S
C339        N344   1.364       .  A
C339        C391   1.492       .  S
N340        C341   1.355       .  A
C341        C388   1.460       .  S
N342        C343   1.356       .  A
C343        N344   1.360       .  A
C343        C389   1.466       .  S
N345        N346   1.323       .  A
N345        N351   1.317       .  A
N345       Mn374   2.214       .  S
N346        C353   1.353       .  A
N347        N349   1.316       .  A
N347        N348   1.321       .  A
N347       Mn363   2.200       .  S
N348        C354   1.351       .  A
N349        N350   1.321       .  A
N349       Mn374   2.204       .  S
N350        C354   1.351       .  A
N351        N352   1.323       .  A
N351       Mn363   2.214       .  S
N352        C353   1.353       .  A
N355        N361   1.316       .  A
N355        N356   1.321       .  A
N355       Mn385   2.203       .  S
N356        C364   1.351       .  A
N357        N358   1.321       .  A
N357        N359   1.316       .  A
N357       Mn363   2.202       .  S
N358        C365   1.351       .  A
N359        N360   1.321       .  A
N359       Mn385   2.206       .  S
N360        C365   1.351       .  A
N361        N362   1.321       .  A
N361       Mn363   2.206       .  S
N362        C364   1.351       .  A
Mn363      Cl387   2.551       .  S
N366        N367   1.321       .  A
N366        N372   1.317       .  A
N366       Mn374   2.204       .  S
N367        C375   1.351       .  A
N368        N370   1.317       .  A
N368        N369   1.321       .  A
N368       Mn386   2.205       .  S
N369        C376   1.351       .  A
N370        N371   1.320       .  A
N370       Mn374   2.203       .  S
N371        C376   1.351       .  A
N372        N373   1.321       .  A
N372       Mn386   2.206       .  S
N373        C375   1.352       .  A
Mn374      Cl387   2.550       .  S
N377        N378   1.321       .  A
N377        N383   1.316       .  A
N377       Mn385   2.204       .  S
N378        C388   1.351       .  A
N379        N380   1.322       .  A
N379        N381   1.316       .  A
N379       Mn386   2.208       .  S
N380        C389   1.352       .  A
N381        N382   1.322       .  A
N381       Mn385   2.209       .  S
N382        C389   1.352       .  A
N383        N384   1.320       .  A
N383       Mn386   2.202       .  S
N384        C388   1.351       .  A
Mn385      Cl387   2.550       .  S
Mn386      Cl387   2.550       .  S
C390        C391   1.416       .  A
C391        C392   1.411       .  A
C392        C393   1.399       .  A
C392        F399   1.357       .  S
C393        C394   1.402       .  A
C393        F398   1.358       .  S
C395        F396   1.358       .  S
C400        C401   1.411       .  A
C400        C405   1.399       .  A
C400        F407   1.358       .  S
C402        C403   1.400       .  A
C402        F409   1.358       .  S
C403        F408   1.358       .  S
C404        C405   1.404       .  A
C405        F406   1.358       .  S
C410        C415   1.400       .  A
C411        C412   1.404       .  A
C412        C413   1.399       .  A
C412        F419   1.358       .  S
C414        C415   1.410       .  A
C415        F416   1.358       .  S
C420        C425   1.401       .  A
C420        F427   1.358       .  S
C421        C422   1.401   1_554  A
C422        C423   1.401       .  A
C422        F429   1.358       .  S
C423        F428   1.357       .  S
C424        C425   1.418       .  A
C425        F426   1.358       .  S
C430        N717   1.366       .  A
C430        N435   1.360   1_556  A
C430        C567   1.499   1_556  S
N431        C573   1.366       .  A
N431        C432   1.363       .  A
C432        N433   1.357       .  A
C432        C496   1.471       .  S
N433        C577   1.356       .  A
C434        N719   1.356   1_554  A
C434        N435   1.356       .  A
C434        C497   1.461       .  S
C436        N723   1.360       .  A
C436        N441   1.361   1_556  A
C436        C557   1.485       .  S
N437        C579   1.360       .  A
N437        C438   1.357       .  A
C438        N439   1.356       .  A
C438        C519   1.459       .  S
N439        C583   1.356       .  A
C440        N725   1.357   1_554  A
C440        N441   1.359       .  A
C440        C518   1.462       .  S
C442        N729   1.361       .  A
C442        N447   1.360   1_556  A
C442        C544   1.485       .  S
N443        C585   1.362       .  A
N443        C444   1.358       .  A
C444        N588   1.356       .  A
C444        C508   1.461       .  S
N445        C730   1.356       .  A
N445        C446   1.356   1_556  A
C446        N447   1.356       .  A
C446        C507   1.460       .  S
N448        C453   1.353       .  A
N448       C1310   1.353   1_455  A
N448        H480   1.036       .  S
N449        C457   1.352       .  A
N450        C455   1.354       .  A
N450       C1312   1.354   1_455  A
N450        H481   1.036       .  S
N451        C459   1.351       .  A
C452       N1306   1.353       .  A
C452        C460   1.386       .  A
C452        C468   1.415       .  A
C453        C469   1.417       .  A
C453        C461   1.388       .  A
C454       N1308   1.352       .  A
C454        C462   1.387       .  A
C454        C471   1.414       .  A
C455        C470   1.416       .  A
C455        C463   1.387       .  A
C456        C468   1.415       .  A
C457        C471   1.414       .  A
C457        C465   1.386       .  A
C458        C469   1.415       .  A
C459        C467   1.386       .  A
C459        C470   1.412       .  A
C460       C1319   1.376       .  A
C460        H472   1.082       .  S
C461       C1318   1.376   1_455  A
C461        H473   1.082       .  S
C462       C1321   1.374       .  A
C462        H617   1.082       .  S
C463       C1320   1.374   1_455  A
C463        H618   1.082       .  S
C464        C465   1.372       .  A
C465        H477   1.082       .  S
C466        C467   1.372       .  A
C467        H479   1.082       .  S
C468        C564   1.487       .  S
C469        C554   1.488       .  S
C470        C680   1.485       .  S
C471        C690   1.485       .  S
H474        C748   1.082       .  S
H475        C749   1.082       .  S
C482        N769   1.359       .  A
C482        N487   1.364   1_556  A
C482        C534   1.494       .  S
N483        C625   1.358       .  A
N483        C484   1.354       .  A
C484        N628   1.355       .  A
C484        C531   1.455       .  S
N485        C770   1.356       .  A
N485        C486   1.357   1_556  A
C486        N487   1.361       .  A
C486        C532   1.467       .  S
N488        N489   1.323       .  A
N488        N494   1.317       .  A
N488       Mn517   2.215       .  S
N489        C496   1.353       .  A
N490        N492   1.316       .  A
N490        N491   1.321       .  A
N490       Mn506   2.199       .  S
N491        C497   1.351       .  A
N492        N493   1.321       .  A
N492       Mn517   2.205       .  S
N493        C497   1.352       .  A
N494        N495   1.323       .  A
N494       Mn506   2.217       .  S
N495        C496   1.353       .  A
N498        N504   1.316       .  A
N498        N499   1.321       .  A
N498       Mn528   2.198       .  S
N499        C507   1.351       .  A
N500        N501   1.321       .  A
N500        N502   1.316       .  A
N500       Mn506   2.202       .  S
N501        C508   1.351       .  A
N502        N503   1.322       .  A
N502       Mn528   2.209       .  S
N503        C508   1.352       .  A
N504        N505   1.321       .  A
N504       Mn506   2.208       .  S
N505        C507   1.351       .  A
Mn506      Cl530   2.550       .  S
N509        N510   1.321       .  A
N509        N515   1.317       .  A
N509       Mn517   2.206       .  S
N510        C518   1.351       .  A
N511        N513   1.317       .  A
N511        N512   1.321       .  A
N511       Mn529   2.204       .  S
N512        C519   1.351       .  A
N513        N514   1.320       .  A
N513       Mn517   2.204       .  S
N514        C519   1.351       .  A
N515        N516   1.321       .  A
N515       Mn529   2.204       .  S
N516        C518   1.352       .  A
Mn517      Cl530   2.550       .  S
N520        N521   1.320       .  A
N520        N526   1.316       .  A
N520       Mn528   2.197       .  S
N521        C531   1.350       .  A
N522        N523   1.322       .  A
N522        N524   1.316       .  A
N522       Mn529   2.208       .  S
N523        C532   1.352       .  A
N524        N525   1.322       .  A
N524       Mn528   2.212       .  S
N525        C532   1.353       .  A
N526        N527   1.320       .  A
N526       Mn529   2.200       .  S
N527        C531   1.350       .  A
Mn528      Cl530   2.550       .  S
Mn529      Cl530   2.552       .  S
C533        C534   1.416       .  A
C533        C824   1.401       .  A
C533        F826   1.358       .  S
C534        C535   1.412   1_556  A
C535        C536   1.399       .  A
C535        F542   1.357       .  S
C536        C537   1.402   1_554  A
C536        F541   1.358       .  S
C537        C756   1.487       .  S
C537        C824   1.401       .  A
C538        C676   1.400       .  A
C538        C680   1.401       .  A
C538        F539   1.358       .  S
F540        C676   1.358       .  S
C543        C544   1.410   1_554  A
C543        C548   1.399       .  A
C543        F550   1.358       .  S
C544        C831   1.409       .  A
C545        C687   1.412       .  A
C545        C546   1.398       .  A
C545        F552   1.357       .  S
C546        C690   1.402       .  A
C546        F551   1.358       .  S
C547        C757   1.493       .  S
C547        C832   1.406       .  A
C547        C548   1.405   1_556  A
C548        F549   1.358       .  S
C553        C840   1.404   1_554  A
C553        C558   1.401       .  A
C553        F846   1.358       .  S
C554        C696   1.404       .  A
C554        C555   1.404       .  A
C555        C556   1.399       .  A
C555        F562   1.358       .  S
C556        C700   1.409       .  A
C556        F704   1.358       .  S
C557        C842   1.410       .  A
C557        C558   1.410   1_556  A
C558        F559   1.358       .  S
F560        C696   1.358       .  S
F561        C842   1.358       .  S
C563        C850   1.402       .  A
C563        C568   1.402       .  A
C563        F570   1.358       .  S
C564        C706   1.402       .  A
C564        C565   1.402       .  A
C565        C566   1.399       .  A
C565        F572   1.358       .  S
C566        C710   1.410       .  A
C566        F571   1.357       .  S
C567        C852   1.413   1_554  A
C567        C568   1.418       .  A
C568        F569   1.358       .  S
C573        N578   1.358       .  A
C573        C710   1.493       .  S
N574        C716   1.366       .  A
N574        C575   1.363       .  A
C575        N576   1.357       .  A
C575        C639   1.470       .  S
N576        C720   1.356       .  A
C577        N578   1.354       .  A
C577        C640   1.457       .  S
C579        N584   1.360       .  A
C579        C700   1.483       .  S
N580        C722   1.360       .  A
N580        C581   1.356       .  A
C581        N582   1.356       .  A
C581        C662   1.460       .  S
N582        C726   1.356       .  A
C583        N584   1.357       .  A
C583        C661   1.460       .  S
C585        N590   1.360       .  A
C585        C687   1.489       .  S
N586        C728   1.361       .  A
N586        C587   1.358       .  A
C587        N731   1.357       .  A
C587        C651   1.459       .  S
N588        C589   1.355       .  A
C589        N590   1.356       .  A
C589        C650   1.458       .  S
N591        C596   1.353       .  A
N591       C1453   1.353   1_455  A
N591        H623   1.036       .  S
N592        C600   1.353       .  A
N593        C598   1.354       .  A
N593       C1455   1.353   1_455  A
N593        H624   1.035       .  S
N594        C602   1.352       .  A
C595       N1449   1.353       .  A
C595        C603   1.386       .  A
C595        C611   1.415       .  A
C596        C612   1.417       .  A
C596        C604   1.388       .  A
C597       N1451   1.353       .  A
C597        C605   1.387       .  A
C597        C614   1.416       .  A
C598        C613   1.416       .  A
C598        C606   1.387       .  A
C599        C611   1.415       .  A
C600        C614   1.417       .  A
C600        C608   1.387       .  A
C601        C612   1.416       .  A
C602        C610   1.386       .  A
C602        C613   1.414       .  A
C603       C1462   1.377       .  A
C603        H615   1.082       .  S
C604       C1461   1.376   1_455  A
C604        H616   1.082       .  S
C605       C1464   1.373       .  A
C605        H760   1.082       .  S
C606       C1463   1.374   1_455  A
C606        H761   1.082       .  S
C607        C608   1.371       .  A
C608        H620   1.082       .  S
C609        C610   1.373       .  A
C610        H622   1.082       .  S
C611        C707   1.487       .  S
C612        C697   1.487       .  S
C613        C823   1.486       .  S
C614        C833   1.490       .  S
C625        N630   1.364       .  A
C625        C677   1.491       .  S
N626        C768   1.359       .  A
N626        C627   1.355       .  A
C627        N771   1.356       .  A
C627        C674   1.457       .  S
N628        C629   1.356       .  A
C629        N630   1.361       .  A
C629        C675   1.465       .  S
N631        N632   1.323       .  A
N631        N637   1.317       .  A
N631       Mn660   2.214       .  S
N632        C639   1.353       .  A
N633        N635   1.316       .  A
N633        N634   1.320       .  A
N633       Mn649   2.195       .  S
N634        C640   1.350       .  A
N635        N636   1.320       .  A
N635       Mn660   2.202       .  S
N636        C640   1.351       .  A
N637        N638   1.323       .  A
N637       Mn649   2.214       .  S
N638        C639   1.353       .  A
N641        N647   1.316       .  A
N641        N642   1.320       .  A
N641       Mn671   2.196       .  S
N642        C650   1.350       .  A
N643        N644   1.320       .  A
N643        N645   1.316       .  A
N643       Mn649   2.198       .  S
N644        C651   1.350       .  A
N645        N646   1.321       .  A
N645       Mn671   2.206       .  S
N646        C651   1.352       .  A
N647        N648   1.321       .  A
N647       Mn649   2.207       .  S
N648        C650   1.351       .  A
Mn649      Cl673   2.550       .  S
N652        N653   1.321       .  A
N652        N658   1.316       .  A
N652       Mn660   2.205       .  S
N653        C661   1.351       .  A
N654        N656   1.317       .  A
N654        N655   1.321       .  A
N654       Mn672   2.206       .  S
N655        C662   1.351       .  A
N656        N657   1.320       .  A
N656       Mn660   2.201       .  S
N657        C662   1.351       .  A
N658        N659   1.321       .  A
N658       Mn672   2.202       .  S
N659        C661   1.351       .  A
Mn660      Cl673   2.549       .  S
N663        N664   1.320       .  A
N663        N669   1.316       .  A
N663       Mn671   2.198       .  S
N664        C674   1.350       .  A
N665        N666   1.322       .  A
N665        N667   1.316       .  A
N665       Mn672   2.208       .  S
N666        C675   1.352       .  A
N667        N668   1.322       .  A
N667       Mn671   2.208       .  S
N668        C675   1.352       .  A
N669        N670   1.320       .  A
N669       Mn672   2.201       .  S
N670        C674   1.351       .  A
Mn671      Cl673   2.550       .  S
Mn672      Cl673   2.549       .  S
C676        C677   1.415       .  A
C677        C678   1.411       .  A
C678        C679   1.399       .  A
C678        F685   1.357       .  S
C679        C680   1.402       .  A
C679        F684   1.358       .  S
C681        C819   1.400       .  A
C681        C823   1.401       .  A
C681        F682   1.358       .  S
F683        C819   1.358       .  S
C686        C687   1.414       .  A
C686        C691   1.399       .  A
C686        F693   1.358       .  S
C688        C830   1.409       .  A
C688        C689   1.399       .  A
C688        F695   1.358       .  S
C689        C833   1.405       .  A
C689        F694   1.358       .  S
C690        C691   1.401       .  A
C691        F692   1.358       .  S
C696        C701   1.399       .  A
C697        C839   1.403       .  A
C697        C698   1.403       .  A
C698        C699   1.399       .  A
C698        F705   1.358       .  S
C699        C843   1.411       .  A
C699        F847   1.358       .  S
C700        C701   1.409       .  A
C701        F702   1.358       .  S
F703        C839   1.358       .  S
C706        C711   1.402       .  A
C706        F713   1.358       .  S
C707        C849   1.401       .  A
C707        C708   1.401       .  A
C708        C709   1.400       .  A
C708        F715   1.358       .  S
C709        C853   1.413       .  A
C709        F714   1.357       .  S
C710        C711   1.417       .  A
C711        F712   1.358       .  S
C716        N721   1.359       .  A
C716        C853   1.498       .  S
N717        C718   1.362       .  A
C718        N719   1.357       .  A
C718        C782   1.470       .  S
C720        N721   1.355       .  A
C720        C783   1.461       .  S
C722        N727   1.361       .  A
C722        C843   1.485       .  S
N723        C724   1.357       .  A
C724        N725   1.356       .  A
C724        C805   1.461       .  S
C726        N727   1.358       .  A
C726        C804   1.462       .  S
C728        N733   1.360       .  A
C728        C830   1.483       .  S
N729        C730   1.359       .  A
C730        C794   1.461       .  S
N731        C732   1.356       .  A
C732        N733   1.356       .  A
C732        C793   1.460       .  S
N734        C739   1.354   1_556  A
N734       C1596   1.353   1_456  A
N734        H766   1.036       .  S
N735        C743   1.353   1_554  A
N736        C741   1.354       .  A
N736       C1598   1.353   1_455  A
N736        H767   1.036       .  S
N737        C745   1.352       .  A
C738       N1592   1.354       .  A
C738        C746   1.386       .  A
C738        C754   1.417       .  A
C739        C755   1.418   1_554  A
C739        C747   1.388       .  A
C740       N1594   1.353   1_554  A
C740        C748   1.388       .  A
C740        C757   1.417   1_554  A
C741        C756   1.417       .  A
C741        C749   1.387   1_556  A
C742        C754   1.417       .  A
C743        C757   1.418       .  A
C743        C751   1.387       .  A
C744        C755   1.417       .  A
C745        C753   1.386       .  A
C745        C756   1.414       .  A
C746       C1605   1.376       .  A
C746        H758   1.082       .  S
C747       C1604   1.376   1_455  A
C747        H759   1.082       .  S
C748       C1607   1.374       .  A
C749       C1606   1.374   1_455  A
C750        C751   1.372       .  A
C751        H763   1.082       .  S
C752        C753   1.373       .  A
C753        H765   1.082       .  S
C754        C850   1.489       .  S
C755        C840   1.490       .  S
C768        N773   1.364       .  A
C768        C820   1.493       .  S
N769        C770   1.355       .  A
C770        C817   1.459       .  S
N771        C772   1.356       .  A
C772        N773   1.360       .  A
C772        C818   1.466       .  S
N774        N775   1.323       .  A
N774        N780   1.317       .  A
N774       Mn803   2.215       .  S
N775        C782   1.353       .  A
N776        N778   1.316       .  A
N776        N777   1.321       .  A
N776       Mn792   2.200       .  S
N777        C783   1.351       .  A
N778        N779   1.321       .  A
N778       Mn803   2.205       .  S
N779        C783   1.352       .  A
N780        N781   1.323       .  A
N780       Mn792   2.213       .  S
N781        C782   1.353       .  A
N784        N790   1.316       .  A
N784        N785   1.321       .  A
N784       Mn814   2.203       .  S
N785        C793   1.351       .  A
N786        N787   1.321       .  A
N786        N788   1.316       .  A
N786       Mn792   2.202       .  S
N787        C794   1.351       .  A
N788        N789   1.321       .  A
N788       Mn814   2.205       .  S
N789        C794   1.351       .  A
N790        N791   1.321       .  A
N790       Mn792   2.205       .  S
N791        C793   1.351       .  A
Mn792      Cl816   2.550       .  S
N795        N796   1.321       .  A
N795        N801   1.317       .  A
N795       Mn803   2.206       .  S
N796        C804   1.351       .  A
N797        N799   1.317       .  A
N797        N798   1.321       .  A
N797       Mn815   2.206       .  S
N798        C805   1.351       .  A
N799        N800   1.321       .  A
N799       Mn803   2.204       .  S
N800        C805   1.351       .  A
N801        N802   1.321       .  A
N801       Mn815   2.205       .  S
N802        C804   1.352       .  A
Mn803      Cl816   2.550       .  S
N806        N807   1.321       .  A
N806        N812   1.316       .  A
N806       Mn814   2.204       .  S
N807        C817   1.351       .  A
N808        N809   1.322       .  A
N808        N810   1.316       .  A
N808       Mn815   2.209       .  S
N809        C818   1.352       .  A
N810        N811   1.322       .  A
N810       Mn814   2.209       .  S
N811        C818   1.352       .  A
N812        N813   1.320       .  A
N812       Mn815   2.201       .  S
N813        C817   1.350       .  A
Mn814      Cl816   2.550       .  S
Mn815      Cl816   2.550       .  S
C819        C820   1.416       .  A
C820        C821   1.412       .  A
C821        C822   1.399       .  A
C821        F828   1.357       .  S
C822        C823   1.402       .  A
C822        F827   1.358       .  S
C824        F825   1.358       .  S
C829        C830   1.410       .  A
C829        C834   1.398       .  A
C829        F836   1.358       .  S
C831        C832   1.400       .  A
C831        F838   1.358       .  S
C832        F837   1.358       .  S
C833        C834   1.404       .  A
C834        F835   1.358       .  S
C839        C844   1.400       .  A
C840        C841   1.404       .  A
C841        C842   1.399       .  A
C841        F848   1.358       .  S
C843        C844   1.410       .  A
C844        F845   1.358       .  S
C849        C854   1.401       .  A
C849        F856   1.358       .  S
C850        C851   1.401   1_554  A
C851        C852   1.401       .  A
C851        F858   1.358       .  S
C852        F857   1.357       .  S
C853        C854   1.418       .  A
C854        F855   1.358       .  S
C859       N1146   1.367       .  A
C859        N864   1.359   1_556  A
C859        C996   1.498   1_556  S
N860       C1002   1.365       .  A
N860        C861   1.362       .  A
C861        N862   1.356       .  A
C861        C925   1.468       .  S
N862       C1006   1.356       .  A
C863       N1148   1.356   1_554  A
C863        N864   1.355       .  A
C863        C926   1.458       .  S
C865       N1152   1.360       .  A
C865        N870   1.361   1_556  A
C865        C986   1.485       .  S
N866       C1008   1.360       .  A
N866        C867   1.356       .  A
C867        N868   1.355       .  A
C867        C948   1.459       .  S
N868       C1012   1.356       .  A
C869       N1154   1.357   1_554  A
C869        N870   1.358       .  A
C869        C947   1.461       .  S
C871       N1158   1.362       .  A
C871        N876   1.361   1_556  A
C871        C973   1.490       .  S
N872       C1014   1.362       .  A
N872        C873   1.358       .  A
C873       N1017   1.356       .  A
C873        C937   1.462       .  S
N874       C1159   1.356       .  A
N874        C875   1.356   1_556  A
C875        N876   1.357       .  A
C875        C936   1.461       .  S
N877        C882   1.353       .  A
N877        H909   1.036       .  S
N878       C1314   1.353   1_545  A
N878        C886   1.353       .  A
N879        C884   1.353       .  A
N879        H910   1.036       .  S
N880       C1316   1.351   1_545  A
N880        C888   1.351       .  A
C881        C889   1.387       .  A
C881        C897   1.415       .  A
C882        C898   1.417       .  A
C882        C890   1.388       .  A
C883        C891   1.387       .  A
C883        C900   1.417       .  A
C884        C899   1.415       .  A
C884        C892   1.387       .  A
C885       N1307   1.353       .  A
C885        C897   1.416       .  A
C885       C1322   1.386       .  A
C886        C900   1.417       .  A
C886        C894   1.387       .  A
C887       N1309   1.351       .  A
C887       C1324   1.387       .  A
C887        C898   1.414       .  A
C888        C896   1.386       .  A
C888        C899   1.412       .  A
C889        H901   1.082       .  S
C890        H902   1.082       .  S
C891       H1046   1.082       .  S
C892       H1047   1.082       .  S
C893       C1314   1.386   1_545  A
C893        C894   1.373       .  A
C893       H1334   1.082   1_545  S
C894        H906   1.082       .  S
C895       C1316   1.387   1_545  A
C895        C896   1.373       .  A
C895       H1336   1.082   1_545  S
C896        H908   1.082       .  S
C897        C993   1.486       .  S
C898        C983   1.487       .  S
C899       C1109   1.484       .  S
C900       C1119   1.489       .  S
H903       C1177   1.082       .  S
H904       C1178   1.082       .  S
H905       C1322   1.082       .  S
H907       C1324   1.082       .  S
C911       N1198   1.359       .  A
C911        N916   1.363   1_556  A
C911        C963   1.489       .  S
N912       C1054   1.359       .  A
N912        C913   1.354       .  A
C913       N1057   1.355       .  A
C913        C960   1.457       .  S
N914       C1199   1.357       .  A
N914        C915   1.357   1_556  A
C915        N916   1.360       .  A
C915        C961   1.466       .  S
N917        N918   1.322       .  A
N917        N923   1.316       .  A
N917       Mn946   2.211       .  S
N918        C925   1.353       .  A
N919        N921   1.315       .  A
N919        N920   1.320       .  A
N919       Mn935   2.196       .  S
N920        C926   1.350       .  A
N921        N922   1.321       .  A
N921       Mn946   2.200       .  S
N922        C926   1.351       .  A
N923        N924   1.322       .  A
N923       Mn935   2.213       .  S
N924        C925   1.353       .  A
N927        N933   1.316       .  A
N927        N928   1.321       .  A
N927       Mn957   2.201       .  S
N928        C936   1.351       .  A
N929        N930   1.321       .  A
N929        N931   1.316       .  A
N929       Mn935   2.200       .  S
N930        C937   1.351       .  A
N931        N932   1.321       .  A
N931       Mn957   2.210       .  S
N932        C937   1.352       .  A
N933        N934   1.321       .  A
N933       Mn935   2.207       .  S
N934        C936   1.351       .  A
Mn935      Cl959   2.550       .  S
N938        N939   1.320       .  A
N938        N944   1.316       .  A
N938       Mn946   2.201       .  S
N939        C947   1.350       .  A
N940        N942   1.317       .  A
N940        N941   1.321       .  A
N940       Mn958   2.207       .  S
N941        C948   1.351       .  A
N942        N943   1.320       .  A
N942       Mn946   2.200       .  S
N943        C948   1.350       .  A
N944        N945   1.321       .  A
N944       Mn958   2.206       .  S
N945        C947   1.352       .  A
Mn946      Cl959   2.549       .  S
N949        N950   1.320       .  A
N949        N955   1.316       .  A
N949       Mn957   2.199       .  S
N950        C960   1.350       .  A
N951        N952   1.322       .  A
N951        N953   1.316       .  A
N951       Mn958   2.208       .  S
N952        C961   1.352       .  A
N953        N954   1.322       .  A
N953       Mn957   2.210       .  S
N954        C961   1.352       .  A
N955        N956   1.320       .  A
N955       Mn958   2.204       .  S
N956        C960   1.351       .  A
Mn957      Cl959   2.549       .  S
Mn958      Cl959   2.550       .  S
C962        C963   1.414       .  A
C962       C1253   1.400       .  A
C962       F1255   1.358       .  S
C963        C964   1.410   1_556  A
C964        C965   1.399       .  A
C964        F971   1.357       .  S
C965        C966   1.402   1_554  A
C965        F970   1.358       .  S
C966       C1185   1.486       .  S
C966       C1253   1.402       .  A
C967       C1105   1.399       .  A
C967       C1109   1.400       .  A
C967        F968   1.358       .  S
F969       C1105   1.358       .  S
C972        C973   1.412   1_554  A
C972        C977   1.401       .  A
C972        F979   1.358       .  S
C973       C1260   1.411       .  A
C974       C1116   1.412       .  A
C974        C975   1.400       .  A
C974        F981   1.358       .  S
C975       C1119   1.403       .  A
C975        F980   1.358       .  S
C976       C1186   1.494       .  S
C976       C1261   1.405       .  A
C976        C977   1.404   1_556  A
C977        F978   1.358       .  S
C982       C1269   1.404   1_554  A
C982        C987   1.401       .  A
C982       F1275   1.358       .  S
C983       C1125   1.404       .  A
C983        C984   1.403       .  A
C984        C985   1.398       .  A
C984        F991   1.358       .  S
C985       C1129   1.410       .  A
C985       F1133   1.358       .  S
C986       C1271   1.410       .  A
C986        C987   1.410   1_556  A
C987        F988   1.358       .  S
F989       C1125   1.358       .  S
F990       C1271   1.358       .  S
C992       C1279   1.402       .  A
C992        C997   1.403       .  A
C992        F999   1.358       .  S
C993       C1135   1.401       .  A
C993        C994   1.400       .  A
C994        C995   1.399       .  A
C994       F1001   1.358       .  S
C995       C1139   1.413       .  A
C995       F1000   1.357       .  S
C996       C1281   1.411   1_554  A
C996        C997   1.419       .  A
C997        F998   1.358       .  S
C1002      N1007   1.359       .  A
C1002      C1139   1.497       .  S
N1003      C1145   1.366       .  A
N1003      C1004   1.363       .  A
C1004      N1005   1.357       .  A
C1004      C1068   1.470       .  S
N1005      C1149   1.356       .  A
C1006      N1007   1.355       .  A
C1006      C1069   1.458       .  S
C1008      N1013   1.361       .  A
C1008      C1129   1.484       .  S
N1009      C1151   1.360       .  A
N1009      C1010   1.357       .  A
C1010      N1011   1.356       .  A
C1010      C1091   1.460       .  S
N1011      C1155   1.356       .  A
C1012      N1013   1.358       .  A
C1012      C1090   1.460       .  S
C1014      N1019   1.360       .  A
C1014      C1116   1.490       .  S
N1015      C1157   1.362       .  A
N1015      C1016   1.358       .  A
C1016      N1160   1.356       .  A
C1016      C1080   1.462       .  S
N1017      C1018   1.356       .  A
C1018      N1019   1.357       .  A
C1018      C1079   1.460       .  S
N1020      C1025   1.353       .  A
N1020      H1052   1.033       .  S
N1021      C1457   1.354   1_545  A
N1021      C1029   1.354       .  A
N1022      C1027   1.354       .  A
N1022      H1053   1.036       .  S
N1023      C1459   1.351   1_545  A
N1023      C1031   1.350       .  A
C1024      C1032   1.386       .  A
C1024      C1040   1.415       .  A
C1025      C1041   1.419       .  A
C1025      C1033   1.388       .  A
C1026      C1034   1.387       .  A
C1026      C1043   1.416       .  A
C1027      C1042   1.416       .  A
C1027      C1035   1.387       .  A
C1028      N1450   1.353       .  A
C1028      C1040   1.416       .  A
C1028      C1465   1.386       .  A
C1029      C1043   1.417       .  A
C1029      C1037   1.386       .  A
C1030      N1452   1.352       .  A
C1030      C1467   1.387       .  A
C1030      C1041   1.416       .  A
C1031      C1039   1.386       .  A
C1031      C1042   1.411       .  A
C1032      H1044   1.082       .  S
C1033      H1045   1.082       .  S
C1034      H1189   1.082       .  S
C1035      H1190   1.082       .  S
C1036      C1457   1.386   1_545  A
C1036      C1037   1.373       .  A
C1036      H1477   1.082   1_545  S
C1037      H1049   1.082       .  S
C1038      C1459   1.387   1_545  A
C1038      C1039   1.372       .  A
C1038      H1479   1.082   1_545  S
C1039      H1051   1.083       .  S
C1040      C1136   1.488       .  S
C1041      C1126   1.488       .  S
C1042      C1252   1.484       .  S
C1043      C1262   1.488       .  S
H1048      C1465   1.082       .  S
H1050      C1467   1.082       .  S
C1054      N1059   1.364       .  A
C1054      C1106   1.490       .  S
N1055      C1197   1.358       .  A
N1055      C1056   1.354       .  A
C1056      N1200   1.356       .  A
C1056      C1103   1.456       .  S
N1057      C1058   1.356       .  A
C1058      N1059   1.360       .  A
C1058      C1104   1.464       .  S
N1060      N1061   1.323       .  A
N1060      N1066   1.316       .  A
N1060     Mn1089   2.214       .  S
N1061      C1068   1.353       .  A
N1062      N1064   1.316       .  A
N1062      N1063   1.320       .  A
N1062     Mn1078   2.199       .  S
N1063      C1069   1.351       .  A
N1064      N1065   1.321       .  A
N1064     Mn1089   2.201       .  S
N1065      C1069   1.351       .  A
N1066      N1067   1.323       .  A
N1066     Mn1078   2.213       .  S
N1067      C1068   1.353       .  A
N1070      N1076   1.316       .  A
N1070      N1071   1.321       .  A
N1070     Mn1100   2.200       .  S
N1071      C1079   1.351       .  A
N1072      N1073   1.321       .  A
N1072      N1074   1.316       .  A
N1072     Mn1078   2.203       .  S
N1073      C1080   1.351       .  A
N1074      N1075   1.321       .  A
N1074     Mn1100   2.208       .  S
N1075      C1080   1.352       .  A
N1076      N1077   1.321       .  A
N1076     Mn1078   2.205       .  S
N1077      C1079   1.351       .  A
Mn1078    Cl1102   2.550       .  S
N1081      N1082   1.321       .  A
N1081      N1087   1.316       .  A
N1081     Mn1089   2.203       .  S
N1082      C1090   1.351       .  A
N1083      N1085   1.317       .  A
N1083      N1084   1.321       .  A
N1083     Mn1101   2.205       .  S
N1084      C1091   1.351       .  A
N1085      N1086   1.320       .  A
N1085     Mn1089   2.201       .  S
N1086      C1091   1.351       .  A
N1087      N1088   1.321       .  A
N1087     Mn1101   2.205       .  S
N1088      C1090   1.352       .  A
Mn1089    Cl1102   2.550       .  S
N1092      N1093   1.320       .  A
N1092      N1098   1.316       .  A
N1092     Mn1100   2.200       .  S
N1093      C1103   1.351       .  A
N1094      N1095   1.321       .  A
N1094      N1096   1.316       .  A
N1094     Mn1101   2.207       .  S
N1095      C1104   1.352       .  A
N1096      N1097   1.322       .  A
N1096     Mn1100   2.209       .  S
N1097      C1104   1.352       .  A
N1098      N1099   1.320       .  A
N1098     Mn1101   2.201       .  S
N1099      C1103   1.350       .  A
Mn1100    Cl1102   2.551       .  S
Mn1101    Cl1102   2.550       .  S
C1105      C1106   1.415       .  A
C1106      C1107   1.412       .  A
C1107      C1108   1.399       .  A
C1107      F1114   1.357       .  S
C1108      C1109   1.402       .  A
C1108      F1113   1.358       .  S
C1110      C1248   1.400       .  A
C1110      C1252   1.400       .  A
C1110      F1111   1.358       .  S
F1112      C1248   1.358       .  S
C1115      C1116   1.413       .  A
C1115      C1120   1.400       .  A
C1115      F1122   1.358       .  S
C1117      C1259   1.413       .  A
C1117      C1118   1.399       .  A
C1117      F1124   1.358       .  S
C1118      C1262   1.403       .  A
C1118      F1123   1.358       .  S
C1119      C1120   1.403       .  A
C1120      F1121   1.358       .  S
C1125      C1130   1.400       .  A
C1126      C1268   1.404       .  A
C1126      C1127   1.403       .  A
C1127      C1128   1.399       .  A
C1127      F1134   1.358       .  S
C1128      C1272   1.410       .  A
C1128      F1276   1.358       .  S
C1129      C1130   1.410       .  A
C1130      F1131   1.358       .  S
F1132      C1268   1.358       .  S
C1135      C1140   1.401       .  A
C1135      F1142   1.358       .  S
C1136      C1278   1.402       .  A
C1136      C1137   1.402       .  A
C1137      C1138   1.400       .  A
C1137      F1144   1.358       .  S
C1138      C1282   1.411       .  A
C1138      F1143   1.357       .  S
C1139      C1140   1.418       .  A
C1140      F1141   1.358       .  S
C1145      N1150   1.359       .  A
C1145      C1282   1.495       .  S
N1146      C1147   1.363       .  A
C1147      N1148   1.357       .  A
C1147      C1211   1.473       .  S
C1149      N1150   1.355       .  A
C1149      C1212   1.459       .  S
C1151      N1156   1.361       .  A
C1151      C1272   1.485       .  S
N1152      C1153   1.356       .  A
C1153      N1154   1.356       .  A
C1153      C1234   1.460       .  S
C1155      N1156   1.358       .  A
C1155      C1233   1.462       .  S
C1157      N1162   1.361       .  A
C1157      C1259   1.493       .  S
N1158      C1159   1.359       .  A
C1159      C1223   1.462       .  S
N1160      C1161   1.356       .  A
C1161      N1162   1.357       .  A
C1161      C1222   1.461       .  S
N1163      C1168   1.354       .  A
N1163      H1195   1.036   1_554  S
N1164      C1600   1.354   1_545  A
N1164      C1172   1.354   1_554  A
N1165      C1170   1.354       .  A
N1165      H1196   1.039       .  S
N1166      C1602   1.352   1_545  A
N1166      C1174   1.351       .  A
C1167      C1175   1.386       .  A
C1167      C1183   1.415       .  A
C1168      C1184   1.419   1_554  A
C1168      C1176   1.388       .  A
C1169      C1177   1.387   1_556  A
C1169      C1186   1.418       .  A
C1170      C1185   1.417       .  A
C1170      C1178   1.387   1_556  A
C1171      N1593   1.354       .  A
C1171      C1183   1.417       .  A
C1171      C1608   1.386   1_554  A
C1172      C1186   1.419       .  A
C1172      C1180   1.386       .  A
C1173      N1595   1.352       .  A
C1173      C1610   1.387       .  A
C1173      C1184   1.416       .  A
C1174      C1182   1.386       .  A
C1174      C1185   1.413       .  A
C1175      H1187   1.082       .  S
C1176      H1188   1.082       .  S
C1179      C1600   1.386   1_546  A
C1179      C1180   1.373       .  A
C1179      H1620   1.082   1_545  S
C1180      H1192   1.082       .  S
C1181      C1602   1.387   1_545  A
C1181      C1182   1.372       .  A
C1181      H1622   1.082   1_545  S
C1182      H1194   1.082       .  S
C1183      C1279   1.488       .  S
C1184      C1269   1.489       .  S
H1191      C1608   1.082       .  S
H1193      C1610   1.082       .  S
C1197      N1202   1.365       .  A
C1197      C1249   1.490       .  S
N1198      C1199   1.355       .  A
C1199      C1246   1.459       .  S
N1200      C1201   1.357       .  A
C1201      N1202   1.361       .  A
C1201      C1247   1.468       .  S
N1203      N1204   1.324       .  A
N1203      N1209   1.316       .  A
N1203     Mn1232   2.217       .  S
N1204      C1211   1.354       .  A
N1205      N1207   1.315       .  A
N1205      N1206   1.320       .  A
N1205     Mn1221   2.197       .  S
N1206      C1212   1.350       .  A
N1207      N1208   1.321       .  A
N1207     Mn1232   2.202       .  S
N1208      C1212   1.351       .  A
N1209      N1210   1.323       .  A
N1209     Mn1221   2.217       .  S
N1210      C1211   1.354       .  A
N1213      N1219   1.317       .  A
N1213      N1214   1.321       .  A
N1213     Mn1243   2.202       .  S
N1214      C1222   1.351       .  A
N1215      N1216   1.321       .  A
N1215      N1217   1.317       .  A
N1215     Mn1221   2.201       .  S
N1216      C1223   1.351       .  A
N1217      N1218   1.321       .  A
N1217     Mn1243   2.209       .  S
N1218      C1223   1.352       .  A
N1219      N1220   1.321       .  A
N1219     Mn1221   2.208       .  S
N1220      C1222   1.351       .  A
Mn1221    Cl1245   2.551       .  S
N1224      N1225   1.321       .  A
N1224      N1230   1.317       .  A
N1224     Mn1232   2.206       .  S
N1225      C1233   1.351       .  A
N1226      N1228   1.317       .  A
N1226      N1227   1.322       .  A
N1226     Mn1244   2.209       .  S
N1227      C1234   1.352       .  A
N1228      N1229   1.320       .  A
N1228     Mn1232   2.200       .  S
N1229      C1234   1.350       .  A
N1230      N1231   1.321       .  A
N1230     Mn1244   2.206       .  S
N1231      C1233   1.352       .  A
Mn1232    Cl1245   2.551       .  S
N1235      N1236   1.321       .  A
N1235      N1241   1.316       .  A
N1235     Mn1243   2.202       .  S
N1236      C1246   1.351       .  A
N1237      N1238   1.323       .  A
N1237      N1239   1.316       .  A
N1237     Mn1244   2.212       .  S
N1238      C1247   1.353       .  A
N1239      N1240   1.322       .  A
N1239     Mn1243   2.213       .  S
N1240      C1247   1.352       .  A
N1241      N1242   1.320       .  A
N1241     Mn1244   2.203       .  S
N1242      C1246   1.351       .  A
Mn1243    Cl1245   2.550       .  S
Mn1244    Cl1245   2.551       .  S
C1248      C1249   1.416       .  A
C1249      C1250   1.410       .  A
C1250      C1251   1.398       .  A
C1250      F1257   1.357       .  S
C1251      C1252   1.402       .  A
C1251      F1256   1.358       .  S
C1253      F1254   1.358       .  S
C1258      C1259   1.414       .  A
C1258      C1263   1.400       .  A
C1258      F1265   1.357       .  S
C1260      C1261   1.400       .  A
C1260      F1267   1.358       .  S
C1261      F1266   1.358       .  S
C1262      C1263   1.402       .  A
C1263      F1264   1.358       .  S
C1268      C1273   1.400       .  A
C1269      C1270   1.403       .  A
C1270      C1271   1.399       .  A
C1270      F1277   1.358       .  S
C1272      C1273   1.410       .  A
C1273      F1274   1.358       .  S
C1278      C1283   1.402       .  A
C1278      F1285   1.358       .  S
C1279      C1280   1.401   1_554  A
C1280      C1281   1.399       .  A
C1280      F1287   1.357       .  S
C1281      F1286   1.357       .  S
C1282      C1283   1.417       .  A
C1283      F1284   1.358       .  S
C1288      N1575   1.366       .  A
C1288      N1293   1.358   1_556  A
C1288      C1425   1.496   1_556  S
N1289      C1431   1.366       .  A
N1289      C1290   1.362       .  A
C1290      N1291   1.357       .  A
C1290      C1354   1.470       .  S
N1291      C1435   1.356       .  A
C1292      N1577   1.356   1_554  A
C1292      N1293   1.355       .  A
C1292      C1355   1.458       .  S
C1294      N1581   1.360       .  A
C1294      N1299   1.361   1_556  A
C1294      C1415   1.486       .  S
N1295      C1437   1.360       .  A
N1295      C1296   1.356       .  A
C1296      N1297   1.355       .  A
C1296      C1377   1.459       .  S
N1297      C1441   1.356       .  A
C1298      N1583   1.357   1_554  A
C1298      N1299   1.358       .  A
C1298      C1376   1.461       .  S
C1300      N1587   1.362       .  A
C1300      N1305   1.360   1_556  A
C1300      C1402   1.490       .  S
N1301      C1443   1.362       .  A
N1301      C1302   1.358       .  A
C1302      N1446   1.356       .  A
C1302      C1366   1.461       .  S
N1303      C1588   1.356       .  A
N1303      C1304   1.356   1_556  A
C1304      N1305   1.357       .  A
C1304      C1365   1.460       .  S
N1306      C1311   1.353       .  A
N1306      H1338   1.036       .  S
N1307      C1315   1.353       .  A
N1308      C1313   1.353       .  A
N1308      H1339   1.036       .  S
N1309      C1317   1.351       .  A
C1310      C1318   1.387       .  A
C1310      C1326   1.415       .  A
C1311      C1327   1.416       .  A
C1311      C1319   1.387       .  A
C1312      C1320   1.387       .  A
C1312      C1329   1.417       .  A
C1313      C1328   1.415       .  A
C1313      C1321   1.387       .  A
C1314      C1326   1.416       .  A
C1315      C1329   1.417       .  A
C1315      C1323   1.387       .  A
C1316      C1327   1.414       .  A
C1317      C1325   1.386       .  A
C1317      C1328   1.412       .  A
C1318      H1330   1.082       .  S
C1319      H1331   1.082       .  S
C1320      H1475   1.082       .  S
C1321      H1476   1.082       .  S
C1322      C1323   1.373       .  A
C1323      H1335   1.082       .  S
C1324      C1325   1.373       .  A
C1325      H1337   1.082       .  S
C1326      C1422   1.487       .  S
C1327      C1412   1.486       .  S
C1328      C1538   1.483       .  S
C1329      C1548   1.491       .  S
H1332      C1606   1.082       .  S
H1333      C1607   1.082       .  S
C1340      N1627   1.359       .  A
C1340      N1345   1.363   1_556  A
C1340      C1392   1.489       .  S
N1341      C1483   1.359       .  A
N1341      C1342   1.354       .  A
C1342      N1486   1.355       .  A
C1342      C1389   1.456       .  S
N1343      C1628   1.356       .  A
N1343      C1344   1.357   1_556  A
C1344      N1345   1.360       .  A
C1344      C1390   1.465       .  S
N1346      N1347   1.323       .  A
N1346      N1352   1.317       .  A
N1346     Mn1375   2.213       .  S
N1347      C1354   1.353       .  A
N1348      N1350   1.315       .  A
N1348      N1349   1.320       .  A
N1348     Mn1364   2.196       .  S
N1349      C1355   1.350       .  A
N1350      N1351   1.321       .  A
N1350     Mn1375   2.200       .  S
N1351      C1355   1.351       .  A
N1352      N1353   1.323       .  A
N1352     Mn1364   2.215       .  S
N1353      C1354   1.353       .  A
N1356      N1362   1.316       .  A
N1356      N1357   1.321       .  A
N1356     Mn1386   2.199       .  S
N1357      C1365   1.351       .  A
N1358      N1359   1.321       .  A
N1358      N1360   1.316       .  A
N1358     Mn1364   2.200       .  S
N1359      C1366   1.351       .  A
N1360      N1361   1.321       .  A
N1360     Mn1386   2.210       .  S
N1361      C1366   1.352       .  A
N1362      N1363   1.321       .  A
N1362     Mn1364   2.207       .  S
N1363      C1365   1.351       .  A
Mn1364    Cl1388   2.549       .  S
N1367      N1368   1.320       .  A
N1367      N1373   1.316       .  A
N1367     Mn1375   2.202       .  S
N1368      C1376   1.350       .  A
N1369      N1371   1.316       .  A
N1369      N1370   1.321       .  A
N1369     Mn1387   2.207       .  S
N1370      C1377   1.352       .  A
N1371      N1372   1.320       .  A
N1371     Mn1375   2.199       .  S
N1372      C1377   1.350       .  A
N1373      N1374   1.321       .  A
N1373     Mn1387   2.204       .  S
N1374      C1376   1.352       .  A
Mn1375    Cl1388   2.549       .  S
N1378      N1379   1.320       .  A
N1378      N1384   1.316       .  A
N1378     Mn1386   2.198       .  S
N1379      C1389   1.350       .  A
N1380      N1381   1.322       .  A
N1380      N1382   1.316       .  A
N1380     Mn1387   2.207       .  S
N1381      C1390   1.352       .  A
N1382      N1383   1.322       .  A
N1382     Mn1386   2.210       .  S
N1383      C1390   1.352       .  A
N1384      N1385   1.320       .  A
N1384     Mn1387   2.202       .  S
N1385      C1389   1.350       .  A
Mn1386    Cl1388   2.550       .  S
Mn1387    Cl1388   2.550       .  S
C1391      C1392   1.414       .  A
C1391      C1682   1.400       .  A
C1391      F1684   1.358       .  S
C1392      C1393   1.411   1_556  A
C1393      C1394   1.399       .  A
C1393      F1400   1.357       .  S
C1394      C1395   1.402   1_554  A
C1394      F1399   1.358       .  S
C1395      C1614   1.486       .  S
C1395      C1682   1.401       .  A
C1396      C1534   1.399       .  A
C1396      C1538   1.400       .  A
C1396      F1397   1.358       .  S
F1398      C1534   1.358       .  S
C1401      C1402   1.413   1_554  A
C1401      C1406   1.400       .  A
C1401      F1408   1.358       .  S
C1402      C1689   1.411       .  A
C1403      C1545   1.410       .  A
C1403      C1404   1.399       .  A
C1403      F1410   1.358       .  S
C1404      C1548   1.405       .  A
C1404      F1409   1.358       .  S
C1405      C1615   1.492       .  S
C1405      C1690   1.405       .  A
C1405      C1406   1.404   1_556  A
C1406      F1407   1.358       .  S
C1411      C1698   1.404   1_554  A
C1411      C1416   1.400       .  A
C1411      F1704   1.358       .  S
C1412      C1554   1.403       .  A
C1412      C1413   1.402       .  A
C1413      C1414   1.398       .  A
C1413      F1420   1.358       .  S
C1414      C1558   1.411       .  A
C1414      F1562   1.358       .  S
C1415      C1700   1.411       .  A
C1415      C1416   1.411   1_556  A
C1416      F1417   1.358       .  S
F1418      C1554   1.358       .  S
F1419      C1700   1.358       .  S
C1421      C1708   1.402       .  A
C1421      C1426   1.403       .  A
C1421      F1428   1.358       .  S
C1422      C1564   1.402       .  A
C1422      C1423   1.401       .  A
C1423      C1424   1.399       .  A
C1423      F1430   1.358       .  S
C1424      C1568   1.411       .  A
C1424      F1429   1.357       .  S
C1425      C1710   1.411   1_554  A
C1425      C1426   1.418       .  A
C1426      F1427   1.358       .  S
C1431      N1436   1.359       .  A
C1431      C1568   1.495       .  S
N1432      C1574   1.366       .  A
N1432      C1433   1.363       .  A
C1433      N1434   1.357       .  A
C1433      C1497   1.471       .  S
N1434      C1578   1.356       .  A
C1435      N1436   1.355       .  A
C1435      C1498   1.458       .  S
C1437      N1442   1.362       .  A
C1437      C1558   1.485       .  S
N1438      C1580   1.360       .  A
N1438      C1439   1.356       .  A
C1439      N1440   1.356       .  A
C1439      C1520   1.460       .  S
N1440      C1584   1.357       .  A
C1441      N1442   1.359       .  A
C1441      C1519   1.461       .  S
C1443      N1448   1.360       .  A
C1443      C1545   1.487       .  S
N1444      C1586   1.362       .  A
N1444      C1445   1.358       .  A
C1445      N1589   1.356       .  A
C1445      C1509   1.462       .  S
N1446      C1447   1.356       .  A
C1447      N1448   1.356       .  A
C1447      C1508   1.459       .  S
N1449      C1454   1.353       .  A
N1449      H1481   1.036       .  S
N1450      C1458   1.353       .  A
N1451      C1456   1.354       .  A
N1451      H1482   1.036       .  S
N1452      C1460   1.351       .  A
C1453      C1461   1.386       .  A
C1453      C1469   1.415       .  A
C1454      C1470   1.418       .  A
C1454      C1462   1.388       .  A
C1455      C1463   1.387       .  A
C1455      C1472   1.415       .  A
C1456      C1471   1.416       .  A
C1456      C1464   1.387       .  A
C1457      C1469   1.417       .  A
C1458      C1472   1.417       .  A
C1458      C1466   1.386       .  A
C1459      C1470   1.415       .  A
C1460      C1468   1.386       .  A
C1460      C1471   1.413       .  A
C1461      H1473   1.082       .  S
C1462      H1474   1.082       .  S
C1463      H1618   1.082       .  S
C1464      H1619   1.082       .  S
C1465      C1466   1.373       .  A
C1466      H1478   1.082       .  S
C1467      C1468   1.372       .  A
C1468      H1480   1.082       .  S
C1469      C1565   1.488       .  S
C1470      C1555   1.488       .  S
C1471      C1681   1.484       .  S
C1472      C1691   1.487       .  S
C1483      N1488   1.364       .  A
C1483      C1535   1.490       .  S
N1484      C1626   1.358       .  A
N1484      C1485   1.355       .  A
C1485      N1629   1.356       .  A
C1485      C1532   1.457       .  S
N1486      C1487   1.356       .  A
C1487      N1488   1.361       .  A
C1487      C1533   1.464       .  S
N1489      N1490   1.323       .  A
N1489      N1495   1.316       .  A
N1489     Mn1518   2.216       .  S
N1490      C1497   1.354       .  A
N1491      N1493   1.316       .  A
N1491      N1492   1.320       .  A
N1491     Mn1507   2.198       .  S
N1492      C1498   1.350       .  A
N1493      N1494   1.321       .  A
N1493     Mn1518   2.201       .  S
N1494      C1498   1.351       .  A
N1495      N1496   1.323       .  A
N1495     Mn1507   2.213       .  S
N1496      C1497   1.353       .  A
N1499      N1505   1.316       .  A
N1499      N1500   1.321       .  A
N1499     Mn1529   2.200       .  S
N1500      C1508   1.351       .  A
N1501      N1502   1.321       .  A
N1501      N1503   1.316       .  A
N1501     Mn1507   2.202       .  S
N1502      C1509   1.351       .  A
N1503      N1504   1.321       .  A
N1503     Mn1529   2.208       .  S
N1504      C1509   1.352       .  A
N1505      N1506   1.321       .  A
N1505     Mn1507   2.204       .  S
N1506      C1508   1.351       .  A
Mn1507    Cl1531   2.550       .  S
N1510      N1511   1.321       .  A
N1510      N1516   1.317       .  A
N1510     Mn1518   2.205       .  S
N1511      C1519   1.351       .  A
N1512      N1514   1.317       .  A
N1512      N1513   1.321       .  A
N1512     Mn1530   2.206       .  S
N1513      C1520   1.351       .  A
N1514      N1515   1.320       .  A
N1514     Mn1518   2.201       .  S
N1515      C1520   1.350       .  A
N1516      N1517   1.321       .  A
N1516     Mn1530   2.205       .  S
N1517      C1519   1.352       .  A
Mn1518    Cl1531   2.550       .  S
N1521      N1522   1.320       .  A
N1521      N1527   1.316       .  A
N1521     Mn1529   2.200       .  S
N1522      C1532   1.351       .  A
N1523      N1524   1.322       .  A
N1523      N1525   1.316       .  A
N1523     Mn1530   2.207       .  S
N1524      C1533   1.352       .  A
N1525      N1526   1.322       .  A
N1525     Mn1529   2.210       .  S
N1526      C1533   1.352       .  A
N1527      N1528   1.320       .  A
N1527     Mn1530   2.202       .  S
N1528      C1532   1.350       .  A
Mn1529    Cl1531   2.551       .  S
Mn1530    Cl1531   2.551       .  S
C1534      C1535   1.415       .  A
C1535      C1536   1.411       .  A
C1536      C1537   1.399       .  A
C1536      F1543   1.357       .  S
C1537      C1538   1.402       .  A
C1537      F1542   1.358       .  S
C1539      C1677   1.400       .  A
C1539      C1681   1.401       .  A
C1539      F1540   1.358       .  S
F1541      C1677   1.358       .  S
C1544      C1545   1.411       .  A
C1544      C1549   1.400       .  A
C1544      F1551   1.358       .  S
C1546      C1688   1.413       .  A
C1546      C1547   1.400       .  A
C1546      F1553   1.358       .  S
C1547      C1691   1.402       .  A
C1547      F1552   1.358       .  S
C1548      C1549   1.404       .  A
C1549      F1550   1.358       .  S
C1554      C1559   1.400       .  A
C1555      C1697   1.404       .  A
C1555      C1556   1.403       .  A
C1556      C1557   1.399       .  A
C1556      F1563   1.358       .  S
C1557      C1701   1.410       .  A
C1557      F1705   1.358       .  S
C1558      C1559   1.410       .  A
C1559      F1560   1.358       .  S
F1561      C1697   1.358       .  S
C1564      C1569   1.402       .  A
C1564      F1571   1.358       .  S
C1565      C1707   1.402       .  A
C1565      C1566   1.402       .  A
C1566      C1567   1.400       .  A
C1566      F1573   1.358       .  S
C1567      C1711   1.411       .  A
C1567      F1572   1.357       .  S
C1568      C1569   1.417       .  A
C1569      F1570   1.358       .  S
C1574      N1579   1.359       .  A
C1574      C1711   1.496       .  S
N1575      C1576   1.362       .  A
C1576      N1577   1.357       .  A
C1576      C1640   1.471       .  S
C1578      N1579   1.355       .  A
C1578      C1641   1.459       .  S
C1580      N1585   1.362       .  A
C1580      C1701   1.484       .  S
N1581      C1582   1.356       .  A
C1582      N1583   1.356       .  A
C1582      C1663   1.460       .  S
C1584      N1585   1.359       .  A
C1584      C1662   1.463       .  S
C1586      N1591   1.361       .  A
C1586      C1688   1.492       .  S
N1587      C1588   1.359       .  A
C1588      C1652   1.462       .  S
N1589      C1590   1.356       .  A
C1590      N1591   1.357       .  A
C1590      C1651   1.462       .  S
N1592      C1597   1.354       .  A
N1592      H1624   1.032   1_554  S
N1593      C1601   1.354   1_554  A
N1594      C1599   1.354       .  A
N1594      H1625   1.043       .  S
N1595      C1603   1.351       .  A
C1596      C1604   1.387       .  A
C1596      C1612   1.415       .  A
C1597      C1613   1.419   1_554  A
C1597      C1605   1.388       .  A
C1598      C1606   1.387   1_556  A
C1598      C1615   1.417       .  A
C1599      C1614   1.417       .  A
C1599      C1607   1.387   1_556  A
C1600      C1612   1.417       .  A
C1601      C1615   1.418       .  A
C1601      C1609   1.386       .  A
C1602      C1613   1.416       .  A
C1603      C1611   1.386       .  A
C1603      C1614   1.413       .  A
C1604      H1616   1.082       .  S
C1605      H1617   1.082       .  S
C1608      C1609   1.373       .  A
C1609      H1621   1.082       .  S
C1610      C1611   1.372       .  A
C1611      H1623   1.083       .  S
C1612      C1708   1.488       .  S
C1613      C1698   1.488       .  S
C1626      N1631   1.364       .  A
C1626      C1678   1.489       .  S
N1627      C1628   1.355       .  A
C1628      C1675   1.459       .  S
N1629      C1630   1.357       .  A
C1630      N1631   1.360       .  A
C1630      C1676   1.466       .  S
N1632      N1633   1.323       .  A
N1632      N1638   1.317       .  A
N1632     Mn1661   2.215       .  S
N1633      C1640   1.353       .  A
N1634      N1636   1.316       .  A
N1634      N1635   1.320       .  A
N1634     Mn1650   2.198       .  S
N1635      C1641   1.350       .  A
N1636      N1637   1.321       .  A
N1636     Mn1661   2.204       .  S
N1637      C1641   1.351       .  A
N1638      N1639   1.323       .  A
N1638     Mn1650   2.216       .  S
N1639      C1640   1.354       .  A
N1642      N1648   1.317       .  A
N1642      N1643   1.321       .  A
N1642     Mn1672   2.203       .  S
N1643      C1651   1.351       .  A
N1644      N1645   1.321       .  A
N1644      N1646   1.316       .  A
N1644     Mn1650   2.201       .  S
N1645      C1652   1.351       .  A
N1646      N1647   1.321       .  A
N1646     Mn1672   2.209       .  S
N1647      C1652   1.352       .  A
N1648      N1649   1.321       .  A
N1648     Mn1650   2.208       .  S
N1649      C1651   1.351       .  A
Mn1650    Cl1674   2.551       .  S
N1653      N1654   1.321       .  A
N1653      N1659   1.317       .  A
N1653     Mn1661   2.206       .  S
N1654      C1662   1.351       .  A
N1655      N1657   1.317       .  A
N1655      N1656   1.321       .  A
N1655     Mn1673   2.207       .  S
N1656      C1663   1.352       .  A
N1657      N1658   1.320       .  A
N1657     Mn1661   2.201       .  S
N1658      C1663   1.350       .  A
N1659      N1660   1.322       .  A
N1659     Mn1673   2.208       .  S
N1660      C1662   1.352       .  A
Mn1661    Cl1674   2.550       .  S
N1664      N1665   1.321       .  A
N1664      N1670   1.316       .  A
N1664     Mn1672   2.203       .  S
N1665      C1675   1.351       .  A
N1666      N1667   1.322       .  A
N1666      N1668   1.316       .  A
N1666     Mn1673   2.209       .  S
N1667      C1676   1.352       .  A
N1668      N1669   1.322       .  A
N1668     Mn1672   2.212       .  S
N1669      C1676   1.352       .  A
N1670      N1671   1.321       .  A
N1670     Mn1673   2.204       .  S
N1671      C1675   1.351       .  A
Mn1672    Cl1674   2.550       .  S
Mn1673    Cl1674   2.551       .  S
C1677      C1678   1.415       .  A
C1678      C1679   1.410       .  A
C1679      C1680   1.398       .  A
C1679      F1686   1.357       .  S
C1680      C1681   1.402       .  A
C1680      F1685   1.358       .  S
C1682      F1683   1.358       .  S
C1687      C1688   1.414       .  A
C1687      C1692   1.399       .  A
C1687      F1694   1.357       .  S
C1689      C1690   1.400       .  A
C1689      F1696   1.358       .  S
C1690      F1695   1.358       .  S
C1691      C1692   1.401       .  A
C1692      F1693   1.358       .  S
C1697      C1702   1.400       .  A
C1698      C1699   1.402       .  A
C1699      C1700   1.398       .  A
C1699      F1706   1.358       .  S
C1701      C1702   1.409       .  A
C1702      F1703   1.358       .  S
C1707      C1712   1.402       .  A
C1707      F1714   1.358       .  S
C1708      C1709   1.401   1_554  A
C1709      C1710   1.399       .  A
C1709      F1716   1.357       .  S
C1710      F1715   1.357       .  S
C1711      C1712   1.417       .  A
C1712      F1713   1.358       .  S
