geometry optimzed in LAMMPS
_audit_creation_date              2020-11-30 
_audit_creation_method            'lammps2cif' 
_symmetry_space_group_name_H-M    'P1' 
_symmetry_Int_Tables_number       1 
_symmetry_cell_setting            triclinic 
loop_ 
_symmetry_equiv_pos_as_xyz 
  x,y,z 
_cell_length_a                    45.70013818 
_cell_length_b                    45.248694943857295 
_cell_length_c                    33.66375676617347 
_cell_angle_alpha                 90.31394250318233 
_cell_angle_beta                  89.31084514404846 
_cell_angle_gamma                 89.9334163423468 
loop_ 
_atom_site_label 
_atom_site_type_symbol 
_atom_site_fract_x 
_atom_site_fract_y 
_atom_site_fract_z 
_atom_site_charge 
C1          C  0.36114430  0.37916526  0.99469364     0.03200
C2          C  0.34650924  0.37277294  0.29223502    -0.13000
C3          C  0.32248234  0.35347098  0.29153474     0.00700
C4          C  0.31080379  0.34275923  0.32725083    -0.11500
C5          C  0.32441845  0.34938717  0.02990507     0.03200
C6          C  0.35005683  0.36645052  0.03003705    -0.10900
H7          H  0.35358054  0.38270365  0.26462325     0.08800
H8          H  0.29195544  0.32823003  0.32689026     0.06300
H9          H  0.36098377  0.37003444  0.05800047     0.06100
C10         C  0.14722650  0.36610086  0.99813648     0.03200
C11         C  0.15622759  0.35445170  0.29439370    -0.13000
C12         C  0.17650233  0.33119386  0.29212499     0.00700
C13         C  0.18724680  0.31870805  0.32704351    -0.11500
C14         C  0.17920548  0.33062425  0.03074004     0.03200
C15         C  0.15998354  0.35479224  0.03278498    -0.10900
H16         H  0.14733208  0.36326977  0.26721213     0.08800
H17         H  0.20274238  0.30056721  0.32533257     0.06300
H18         H  0.15466342  0.36448673  0.06146965     0.06100
C19         C  0.37660872  0.17137528  0.99403211     0.03200
C20         C  0.36655193  0.18387122  0.29162475    -0.13000
C21         C  0.34496514  0.20603930  0.29214783     0.00700
C22         C  0.33422050  0.21689961  0.99522203    -0.11500
C23         C  0.34346233  0.20438718  0.03090795     0.03200
C24         C  0.36365659  0.18099817  0.03011099    -0.10900
H25         H  0.37549475  0.17652408  0.26330851     0.08800
H26         H  0.31798576  0.23439789  0.99573155     0.06300
H27         H  0.36952477  0.17061368  0.05779912     0.06100
N28         N  0.00917652  0.47276985  0.33593959    -0.36600
N29         N  0.05656445  0.01586891  0.33858103    -0.57100
N30         N  0.01403974  0.06341219  0.33580792    -0.36600
N31         N  0.46660853  0.02021289  0.32976910    -0.57100
C32         C  0.03275926  0.45499256  0.32998228     0.27000
C33         C  0.48502008  0.45682817  0.32683816     0.27000
C34         C  0.03923775  0.07833854  0.32850571     0.27000
C35         C  0.49165162  0.08094121  0.32434824     0.27000
C36         C  0.07175104  0.49113983  0.34707193     0.35600
C37         C  0.07429153  0.03889698  0.34693974     0.35600
C38         C  0.44780418  0.49722586  0.33371183     0.35600
C39         C  0.45052520  0.04529072  0.33352974     0.35600
C40         C  0.02350448  0.42748902  0.31706759    -0.21900
C41         C  0.49354948  0.42838783  0.31592996    -0.21900
C42         C  0.03277089  0.10563559  0.31228324    -0.21900
C43         C  0.50275641  0.10732856  0.30981617    -0.21900
C44         C  0.09919696  0.99842724  0.36116669    -0.22900
C45         C  0.10079775  0.02873835  0.36113165    -0.22900
C46         C  0.41953381  0.00789479  0.33900089    -0.22900
C47         C  0.42133318  0.03819345  0.33955088    -0.22900
C48         C  0.06226122  0.46213479  0.33843203    -0.18300
C49         C  0.45552831  0.46678889  0.33050107    -0.18300
C50         C  0.46141756  0.07444565  0.32842882    -0.18300
C51         C  0.06776888  0.06871582  0.33836855    -0.18300
H52         H  0.03684246  0.40832706  0.31013339     0.14600
H53         H  0.48001028  0.40969454  0.30843901     0.14600
H54         H  0.04804483  0.12272551  0.30350887     0.14600
H55         H  0.49051803  0.12592072  0.29856867     0.14600
H56         H  0.11647217  0.48348295  0.36971926     0.12900
H57         H  0.11954618  0.04176910  0.36975319     0.12900
H58         H  0.39954779  0.49529455  0.34185657     0.12900
H59         H  0.40305944  0.05325362  0.34300795     0.12900
H60         H  0.00932978  0.49331191  0.34964342     0.26200
H61         H  0.01199738  0.04395288  0.35182282     0.26200
C62         C  0.16287135  0.15431606  0.99766351     0.03200
C63         C  0.17289679  0.16628502  0.29471010    -0.13000
C64         C  0.19701283  0.18552466  0.29370087     0.00700
C65         C  0.21038338  0.19396047  0.99591787    -0.11500
C66         C  0.19939326  0.18375667  0.03234536     0.03200
C67         C  0.17592998  0.16385738  0.03312660    -0.10900
H68         H  0.16235419  0.16019348  0.26720561     0.08800
H69         H  0.22855789  0.20934240  0.99532900     0.06300
H70         H  0.16802544  0.15562635  0.06145940     0.06100
C71         C  0.33272141  0.21699518  0.25472582     0.42500
N72         N  0.30296228  0.22224441  0.20644425     0.01400
C73         C  0.28424885  0.34402624  0.08601694    -0.06500
H74         H  0.26648236  0.36299931  0.24324568     0.06900
C75         C  0.18244480  0.29208133  0.23506410    -0.06800
Co76       Co  0.31347291  0.27858837  0.16216542     0.74200
N77         N  0.28203317  0.32746077  0.20520636    -0.25400
Co78       Co  0.25030918  0.32133709  0.16149672     0.74100
C79         C  0.18744502  0.32088855  0.25326803     0.42600
N80         N  0.21421711  0.22583228  0.20594236     0.01000
N81         N  0.21766050  0.31496115  0.20465075     0.01100
N82         N  0.32547171  0.31635255  0.08885349    -0.46900
H83         H  0.35389203  0.26230954  0.24327616     0.06900
N84         N  0.30630009  0.31156374  0.20495802     0.01400
N85         N  0.21908824  0.31403418  0.11798821     0.01100
C86         C  0.19178544  0.31864607  0.06724423     0.42700
N87         N  0.23850545  0.20997944  0.20673017    -0.25500
C88         C  0.33768544  0.24413878  0.08759362    -0.06400
N89         N  0.31052985  0.20392526  0.23518503    -0.46600
N90         N  0.21278681  0.33208936  0.08843938    -0.46800
C91         C  0.33185124  0.21555512  0.06908091     0.42500
N92         N  0.30711383  0.31012461  0.11838545     0.01400
N93         N  0.23946265  0.20881133  0.11941315    -0.25500
N94         N  0.31877224  0.24666976  0.20617573    -0.26000
N95         N  0.21538323  0.22497198  0.11937462     0.01000
H96         H  0.25523625  0.17380735  0.08061192     0.06900
H97         H  0.16975988  0.27363425  0.07810518     0.06900
N98         N  0.28296387  0.32616666  0.11774335    -0.26000
N99         N  0.20183589  0.29056101  0.20487316    -0.25700
N100        N  0.30340590  0.22110257  0.11958905     0.01400
C101        C  0.31170862  0.34206421  0.25336662     0.42800
C102        C  0.23689796  0.19138973  0.23761972    -0.06900
N103        N  0.20329456  0.28960239  0.11765945    -0.25700
H104        H  0.16670650  0.27523841  0.24305212     0.06900
N105        N  0.32455591  0.31951428  0.23335031    -0.46900
H106        H  0.25349188  0.17562552  0.24598872     0.06900
C107        C  0.21060194  0.19577374  0.06974125     0.42600
C108        C  0.33791817  0.24555615  0.23610122    -0.06400
Co109      Co  0.27120499  0.21485681  0.16314069     0.73800
N110        N  0.19550313  0.21877798  0.23477268    -0.46600
C111        C  0.31252875  0.33756952  0.06732290     0.42900
N112        N  0.31020676  0.20259906  0.09021818    -0.46600
Co113      Co  0.20804468  0.25761946  0.16197996     0.73900
C114        C  0.18545751  0.29041069  0.08622225    -0.06900
C115        C  0.28319706  0.34699596  0.23540205    -0.06500
N116        N  0.31924251  0.24550166  0.11892458    -0.26000
N117        N  0.20986630  0.33365259  0.23332955    -0.46800
H118        H  0.26767048  0.35972519  0.07739507     0.06900
C119        C  0.23857738  0.18983469  0.08857688    -0.06900
Cl120      Cl  0.26075560  0.26809953  0.16230903    -0.49900
C121        C  0.20820282  0.19694118  0.25560313     0.42600
H122        H  0.35326970  0.26095081  0.07895983     0.06900
N123        N  0.19752897  0.21788159  0.09017577    -0.46600
C124        C  0.13877913  0.13202751  0.99904799    -0.06100
C125        C  0.11583851  0.13579363  0.02692240    -0.17200
C126        C  0.09318985  0.11507680  0.03054780     0.11100
C127        C  0.09225412  0.09062711  0.00430039    -0.06000
C128        C  0.11500235  0.08687641  0.30959926    -0.17200
C129        C  0.13857444  0.10661061  0.30754993     0.11100
S130        S  0.06649137  0.12077308  0.06977149    -0.32200
S131        S  0.16842166  0.09688032  0.27444346    -0.32200
H132        H  0.19056090  0.10733643  0.29955465     0.29200
H133        H  0.06062435  0.09068080  0.07633341     0.29100
H134        H  0.11574805  0.15486217  0.04653167     0.19700
H135        H  0.11474807  0.06789426  0.28982500     0.19700
C136        C  0.44019723  0.09971445  0.99315515    -0.06100
C137        C  0.44130424  0.12183649  0.02249322    -0.17200
C138        C  0.42233909  0.14623115  0.02206314     0.11100
C139        C  0.39971098  0.14766302  0.99351372    -0.06000
C140        C  0.39905852  0.12560332  0.29710287    -0.17200
C141        C  0.41966856  0.10258687  0.29570161     0.11100
S142        S  0.42998416  0.17561678  0.05686688    -0.32200
S143        S  0.41910272  0.07804702  0.25331531    -0.32200
H144        H  0.44928860  0.07193956  0.25278175     0.29200
H145        H  0.42171256  0.19852670  0.03122307     0.29100
H146        H  0.45783535  0.12056499  0.04524721     0.19700
H147        H  0.38245760  0.12626715  0.27445079     0.19700
C148        C  0.08451994  0.43793136  0.33656039    -0.06100
C149        C  0.08235975  0.41457684  0.03030064    -0.17200
C150        C  0.10145846  0.39037709  0.02818638     0.11100
C151        C  0.12506556  0.39040112  0.00040853    -0.06000
C152        C  0.12740030  0.41414767  0.30706502    -0.17200
C153        C  0.10690162  0.43718667  0.30723504     0.11100
S154        S  0.09277223  0.35930964  0.05951916    -0.32200
S155        S  0.10996337  0.46444864  0.26847767    -0.32200
H156        H  0.07975429  0.46964113  0.26504751     0.29200
H157        H  0.10146504  0.33771194  0.03154599     0.29100
H158        H  0.06471676  0.41456986  0.05211126     0.19700
H159        H  0.14505790  0.41455738  0.28531782     0.19700
C160        C  0.43158252  0.44403780  0.33073783    -0.06100
C161        C  0.42713252  0.42653279  0.29675714    -0.17200
C162        C  0.40713192  0.40305283  0.29695340     0.11100
C163        C  0.38685193  0.40006328  0.99568178    -0.06000
C164        C  0.39082078  0.41840006  0.02927815    -0.17200
C165        C  0.41392426  0.43871206  0.03139482     0.11100
S166        S  0.41175608  0.37576932  0.25807622    -0.32200
S167        S  0.41981529  0.45683473  0.07854189    -0.32200
H168        H  0.45016968  0.46064661  0.07365751     0.29200
H169        H  0.40317643  0.35170177  0.28181895     0.29100
H170        H  0.44101971  0.42973173  0.27081520     0.19700
H171        H  0.37613610  0.41684540  0.05461331     0.19700
C172        C  0.36114867  0.37916273  0.32803067     0.03200
C173        C  0.34652307  0.37276071  0.62556194    -0.13000
C174        C  0.32249662  0.35345765  0.62485879     0.00700
C175        C  0.31081398  0.34274801  0.66057377    -0.11500
C176        C  0.32443189  0.34937044  0.36323621     0.03200
C177        C  0.35006907  0.36643580  0.36337027    -0.10900
H178        H  0.35359741  0.38268961  0.59795029     0.08800
H179        H  0.29196575  0.32821851  0.66021106     0.06300
H180        H  0.36100095  0.37001188  0.39133211     0.06100
C181        C  0.14723515  0.36610119  0.33148581     0.03200
C182        C  0.15622671  0.35444475  0.62770776    -0.13000
C183        C  0.17650081  0.33118550  0.62543796     0.00700
C184        C  0.18724851  0.31870264  0.66035672    -0.11500
C185        C  0.17920237  0.33061146  0.36408521     0.03200
C186        C  0.15998637  0.35478433  0.36613351    -0.10900
H187        H  0.14732701  0.36325911  0.60052674     0.08800
H188        H  0.20274180  0.30055972  0.65864606     0.06300
H189        H  0.15466562  0.36447631  0.39481943     0.06100
C190        C  0.37661326  0.17137181  0.32734663     0.03200
C191        C  0.36656201  0.18387435  0.62497786    -0.13000
C192        C  0.34496698  0.20603378  0.62549836     0.00700
C193        C  0.33422373  0.21689451  0.32854173    -0.11500
C194        C  0.34346324  0.20437682  0.36422573     0.03200
C195        C  0.36365660  0.18098767  0.36342542    -0.10900
H196        H  0.37550845  0.17653022  0.59666260     0.08800
H197        H  0.31798948  0.23439314  0.32905404     0.06300
H198        H  0.36952246  0.17059921  0.39111186     0.06100
N199        N  0.00918177  0.47277101  0.66926810    -0.36600
N200        N  0.05656032  0.01586973  0.67188399    -0.57100
N201        N  0.01403210  0.06340701  0.66917010    -0.36600
N202        N  0.46661970  0.02022353  0.66311872    -0.57100
C203        C  0.03276359  0.45499584  0.66331572     0.27000
C204        C  0.48502299  0.45682953  0.66019870     0.27000
C205        C  0.03922799  0.07833955  0.66186429     0.27000
C206        C  0.49166944  0.08094626  0.65768542     0.27000
C207        C  0.07176031  0.49114289  0.68039152     0.35600
C208        C  0.07428711  0.03889479  0.68026078     0.35600
C209        C  0.44781056  0.49723060  0.66705478     0.35600
C210        C  0.45053972  0.04530365  0.66688089     0.35600
C211        C  0.02350699  0.42749027  0.65040850    -0.21900
C212        C  0.49355262  0.42838988  0.64928393    -0.21900
C213        C  0.03275648  0.10563653  0.64564696    -0.21900
C214        C  0.50277681  0.10732611  0.64313694    -0.21900
C215        C  0.09919648  0.99841850  0.69444323    -0.22900
C216        C  0.10079574  0.02872999  0.69443673    -0.22900
C217        C  0.41954384  0.00791161  0.67235110    -0.22900
C218        C  0.42134707  0.03821014  0.67290251    -0.22900
C219        C  0.06226730  0.46213706  0.67175780    -0.18300
C220        C  0.45553083  0.46679161  0.66385220    -0.18300
C221        C  0.46143568  0.07445661  0.66177775    -0.18300
C222        C  0.06776121  0.06871760  0.67171714    -0.18300
H223        H  0.03684422  0.40832738  0.64347904     0.14600
H224        H  0.48001439  0.40969909  0.64178101     0.14600
H225        H  0.04802768  0.12272912  0.63687153     0.14600
H226        H  0.49054053  0.12591849  0.63188497     0.14600
H227        H  0.11648697  0.48348347  0.70301814     0.12900
H228        H  0.11954458  0.04175717  0.70306676     0.12900
H229        H  0.39955297  0.49530644  0.67518517     0.12900
H230        H  0.40307532  0.05327271  0.67635976     0.12900
H231        H  0.00933694  0.49332908  0.68297232     0.26200
H232        H  0.01199429  0.04395267  0.68517599     0.26200
C233        C  0.16288154  0.15430727  0.33099183     0.03200
C234        C  0.17289816  0.16628221  0.62804981    -0.13000
C235        C  0.19701932  0.18551559  0.62703814     0.00700
C236        C  0.21038990  0.19395552  0.32924694    -0.11500
C237        C  0.19940656  0.18374319  0.36567365     0.03200
C238        C  0.17594441  0.16384273  0.36645448    -0.10900
H239        H  0.16235655  0.16018910  0.60054507     0.08800
H240        H  0.22856314  0.20933909  0.32865871     0.06300
H241        H  0.16804387  0.15560648  0.39478667     0.06100
C242        C  0.33272455  0.21698651  0.58807399     0.42500
N243        N  0.30297506  0.22222737  0.53978008     0.01400
C244        C  0.28426267  0.34400313  0.41934437    -0.06500
H245        H  0.26649707  0.36298247  0.57656892     0.06900
C246        C  0.18244986  0.29206701  0.56838403    -0.06800
Co247      Co  0.31348782  0.27856884  0.49549619     0.74200
N248        N  0.28204723  0.32744166  0.53853379    -0.25400
Co249      Co  0.25032283  0.32131652  0.49482426     0.74100
C250        C  0.18744361  0.32087854  0.58658045     0.42600
N251        N  0.21423062  0.22581314  0.53927354     0.01000
N252        N  0.21767140  0.31494281  0.53797706     0.01100
N253        N  0.32548738  0.31633223  0.42218275    -0.46900
H254        H  0.35389938  0.26229801  0.57661671     0.06900
N255        N  0.30631476  0.31154562  0.53828621     0.01400
N256        N  0.21910136  0.31401308  0.45131645     0.01100
C257        C  0.19178564  0.31863151  0.40058625     0.42700
N258        N  0.23851853  0.20995967  0.54006439    -0.25500
C259        C  0.33769392  0.24412258  0.42091949    -0.06400
N260        N  0.31053638  0.20391337  0.56852995    -0.46600
N261        N  0.21279264  0.33207188  0.42177457    -0.46800
C262        C  0.33185480  0.21554223  0.40240128     0.42500
N263        N  0.30712918  0.31010363  0.45171445     0.01400
N264        N  0.23947764  0.20878994  0.45274499    -0.25500
N265        N  0.31878606  0.24665212  0.53950900    -0.26000
N266        N  0.21539889  0.22495181  0.45270602     0.01000
H267        H  0.25525083  0.17378671  0.41394128     0.06900
H268        H  0.16976287  0.27361844  0.41144745     0.06900
N269        N  0.28297834  0.32614430  0.45107120    -0.26000
N270        N  0.20184755  0.29054215  0.53820093    -0.25700
N271        N  0.30342038  0.22108238  0.45292197     0.01400
C272        C  0.31172460  0.34205057  0.58668971     0.42800
C273        C  0.23690914  0.19137211  0.57095687    -0.06900
N274        N  0.20330794  0.28958124  0.45098887    -0.25700
H275        H  0.16670918  0.27522544  0.57636949     0.06900
N276        N  0.32457153  0.31949921  0.56667594    -0.46900
H277        H  0.25350257  0.17560840  0.57932980     0.06900
C278        C  0.21061718  0.19575637  0.40307031     0.42600
C279        C  0.33792726  0.24554300  0.56944041    -0.06400
Co280      Co  0.27121932  0.21483658  0.49647454     0.73800
N281        N  0.19551552  0.21876151  0.56810350    -0.46600
C282        C  0.31254288  0.33754781  0.40065126     0.42900
N283        N  0.31021530  0.20258276  0.42354412    -0.46600
Co284      Co  0.20805915  0.25759926  0.49530994     0.73900
C285        C  0.18546371  0.29039299  0.41955938    -0.06900
C286        C  0.28321186  0.34697921  0.56872664    -0.06500
N287        N  0.31925692  0.24548157  0.45225698    -0.26000
N288        N  0.20986959  0.33363908  0.56664663    -0.46800
H289        H  0.26768381  0.35970131  0.41072193     0.06900
C290        C  0.23859213  0.18981441  0.42190709    -0.06900
Cl291      Cl  0.26076991  0.26807944  0.49563967    -0.49900
C292        C  0.20821309  0.19692600  0.58893832     0.42600
H293        H  0.35327508  0.26093659  0.41228227     0.06900
N294        N  0.19754527  0.21786399  0.42350584    -0.46600
C295        C  0.13879253  0.13201597  0.33237477    -0.06100
C296        C  0.11585404  0.13577516  0.36025377    -0.17200
C297        C  0.09320994  0.11505363  0.36387831     0.11100
C298        C  0.09227137  0.09061230  0.33761791    -0.06000
C299        C  0.11499411  0.08688116  0.64294928    -0.17200
C300        C  0.13856505  0.10661635  0.64089455     0.11100
S301        S  0.06652448  0.12072725  0.40312385    -0.32200
S302        S  0.16840494  0.09688870  0.60777440    -0.32200
H303        H  0.19054928  0.10733701  0.63288295     0.29200
H304        H  0.06067244  0.09063004  0.40967155     0.29100
H305        H  0.11576383  0.15483954  0.37987036     0.19700
H306        H  0.11473938  0.06789934  0.62317513     0.19700
C307        C  0.44021532  0.09972438  0.32647233    -0.06100
C308        C  0.44131166  0.12184094  0.35581840    -0.17200
C309        C  0.42234309  0.14623259  0.35538693     0.11100
C310        C  0.39972065  0.14766482  0.32682852    -0.06000
C311        C  0.39907737  0.12561465  0.63045393    -0.17200
C312        C  0.41969054  0.10260151  0.62904961     0.11100
S313        S  0.42997718  0.17561431  0.39020151    -0.32200
S314        S  0.41913094  0.07806693  0.58665775    -0.32200
H315        H  0.44931783  0.07196434  0.58612629     0.29200
H316        H  0.42170571  0.19852674  0.36456169     0.29100
H317        H  0.45783657  0.12056728  0.37858073     0.19700
H318        H  0.38247552  0.12627640  0.60780292     0.19700
C319        C  0.08452502  0.43793288  0.66988251    -0.06100
C320        C  0.08236483  0.41456749  0.36365246    -0.17200
C321        C  0.10146165  0.39036693  0.36152602     0.11100
C322        C  0.12507673  0.39040274  0.33376198    -0.06000
C323        C  0.12739322  0.41413971  0.64036701    -0.17200
C324        C  0.10689447  0.43717908  0.64054084     0.11100
S325        S  0.09276008  0.35927942  0.39281486    -0.32200
S326        S  0.10994104  0.46443167  0.60176980    -0.32200
H327        H  0.07973051  0.46962376  0.59835901     0.29200
H328        H  0.10146179  0.33769845  0.36482288     0.29100
H329        H  0.06471553  0.41455107  0.38545430     0.19700
H330        H  0.14504141  0.41454335  0.61860551     0.19700
C331        C  0.43158230  0.44404229  0.66408283    -0.06100
C332        C  0.42713931  0.42653418  0.63010271    -0.17200
C333        C  0.40714174  0.40305130  0.63029505     0.11100
C334        C  0.38686012  0.40005587  0.32901901    -0.06000
C335        C  0.39084145  0.41838206  0.36262287    -0.17200
C336        C  0.41394813  0.43869071  0.36473664     0.11100
S337        S  0.41177546  0.37576702  0.59142056    -0.32200
S338        S  0.41985699  0.45680109  0.41188791    -0.32200
H339        H  0.45021107  0.46060734  0.40698880     0.29200
H340        H  0.40319506  0.35169912  0.61516215     0.29100
H341        H  0.44102961  0.42973326  0.60416435     0.19700
H342        H  0.37616406  0.41682190  0.38796486     0.19700
C343        C  0.36115679  0.37915521  0.66136070     0.03200
C344        C  0.34651351  0.37276188  0.95889602    -0.13000
C345        C  0.32248372  0.35346332  0.95819995     0.00700
C346        C  0.31079597  0.34276608  0.99391908    -0.11500
C347        C  0.32443687  0.34936277  0.69656139     0.03200
C348        C  0.35007299  0.36642995  0.69669919    -0.10900
H349        H  0.35359118  0.38268213  0.93128017     0.08800
H350        H  0.29194610  0.32823884  0.99356100     0.06300
H351        H  0.36100027  0.37000950  0.72466320     0.06100
C352        C  0.14724164  0.36610091  0.66480054     0.03200
C353        C  0.15622119  0.35444921  0.96104547    -0.13000
C354        C  0.17650649  0.33120036  0.95877913     0.00700
C355        C  0.18725532  0.31872152  0.99369974    -0.11500
C356        C  0.17921239  0.33061289  0.69739791     0.03200
C357        C  0.16000156  0.35478976  0.69944579    -0.10900
H358        H  0.14732111  0.36326003  0.93386248     0.08800
H359        H  0.20275616  0.30058509  0.99199177     0.06300
H360        H  0.15469026  0.36448801  0.72813113     0.06100
C361        C  0.37662631  0.17137874  0.66070024     0.03200
C362        C  0.36654590  0.18387093  0.95830910    -0.13000
C363        C  0.34496024  0.20603979  0.95882996     0.00700
C364        C  0.33421891  0.21688477  0.66189074    -0.11500
C365        C  0.34346376  0.20437346  0.69757623     0.03200
C366        C  0.36366756  0.18099292  0.69677871    -0.10900
H367        H  0.37548600  0.17651926  0.92999334     0.08800
H368        H  0.31797809  0.23437724  0.66240098     0.06300
H369        H  0.36953870  0.17060929  0.72446623     0.06100
N370        N  0.00917265  0.47278347  0.00257787    -0.36600
N371        N  0.05656302  0.01587725  0.00526048    -0.57100
N372        N  0.01402697  0.06340852  0.00250676    -0.36600
N373        N  0.46659656  0.02020469  0.99647050    -0.57100
C374        C  0.03275161  0.45500289  0.99662148     0.27000
C375        C  0.48500790  0.45683955  0.99351279     0.27000
C376        C  0.03922137  0.07834199  0.99519502     0.27000
C377        C  0.49163310  0.08093075  0.99100313     0.27000
C378        C  0.07175554  0.49114222  0.01370071     0.35600
C379        C  0.07428242  0.03890902  0.01363143     0.35600
C380        C  0.44779389  0.49724054  0.00037158     0.35600
C381        C  0.45051219  0.04528178  0.00023092     0.35600
C382        C  0.02349058  0.42749956  0.98371339    -0.21900
C383        C  0.49353711  0.42839824  0.98260761    -0.21900
C384        C  0.03274696  0.10563478  0.97896708    -0.21900
C385        C  0.50273259  0.10731333  0.97645076    -0.21900
C386        C  0.09919412  0.99844337  0.02786064    -0.22900
C387        C  0.10078786  0.02875530  0.02783209    -0.22900
C388        C  0.41952718  0.00788391  0.00574609    -0.22900
C389        C  0.42132343  0.03818326  0.00627815    -0.22900
C390        C  0.06225620  0.46213920  0.00506478    -0.18300
C391        C  0.45551600  0.46680242  0.99716886    -0.18300
C392        C  0.46140061  0.07443549  0.99510724    -0.18300
C393        C  0.06775447  0.06872641  0.00505881    -0.18300
H394        H  0.03682457  0.40833436  0.97678268     0.14600
H395        H  0.47999841  0.40970454  0.97511630     0.14600
H396        H  0.04801633  0.12272735  0.97018612     0.14600
H397        H  0.49049020  0.12590221  0.96520018     0.14600
H398        H  0.11648168  0.48347229  0.03632385     0.12900
H399        H  0.11953145  0.04179007  0.03646286     0.12900
H400        H  0.39953638  0.49531416  0.00850615     0.12900
H401        H  0.40304988  0.05324285  0.00974040     0.12900
H402        H  0.00933191  0.49333291  0.01628071     0.26200
H403        H  0.01199114  0.04395890  0.01852015     0.26200
C404        C  0.16287650  0.15431240  0.66433357     0.03200
C405        C  0.17289199  0.16628788  0.96138077    -0.13000
C406        C  0.19701016  0.18552484  0.96037110     0.00700
C407        C  0.21039250  0.19395242  0.66258450    -0.11500
C408        C  0.19940017  0.18375236  0.69901278     0.03200
C409        C  0.17593535  0.16385499  0.69979576    -0.10900
H410        H  0.16235097  0.16019510  0.93387571     0.08800
H411        H  0.22856858  0.20933255  0.66199461     0.06300
H412        H  0.16803036  0.15562589  0.72812927     0.06100
C413        C  0.33271696  0.21699279  0.92140705     0.42500
N414        N  0.30296428  0.22223686  0.87311799     0.01400
C415        C  0.28426435  0.34400473  0.75266842    -0.06500
H416        H  0.26648840  0.36298868  0.90990422     0.06900
C417        C  0.18245115  0.29208415  0.90172325    -0.06800
Co418      Co  0.31348189  0.27857568  0.82883254     0.74200
N419        N  0.28204296  0.32745229  0.87186463    -0.25400
Co420      Co  0.25032053  0.32132904  0.82815352     0.74100
C421        C  0.18745056  0.32089312  0.91992256     0.42600
N422        N  0.21422122  0.22582984  0.87261219     0.01000
N423        N  0.21766883  0.31496012  0.87130816     0.01100
N424        N  0.32548567  0.31632956  0.75551347    -0.46900
H425        H  0.35389388  0.26230283  0.90994917     0.06900
N426        N  0.30630892  0.31155376  0.87162105     0.01400
N427        N  0.21909994  0.31402519  0.78464420     0.01100
C428        C  0.19179703  0.31863433  0.73389933     0.42700
N429        N  0.23850781  0.20997439  0.87340107    -0.25500
C430        C  0.33769289  0.24412174  0.75426515    -0.06400
N431        N  0.31052658  0.20392146  0.90186558    -0.46600
N432        N  0.21279956  0.33207805  0.75509209    -0.46800
C433        C  0.33185346  0.21554033  0.73575009     0.42500
N434        N  0.30712719  0.31010791  0.78504749     0.01400
N435        N  0.23946743  0.20880308  0.78608405    -0.25500
N436        N  0.31877661  0.24666062  0.87284648    -0.26000
N437        N  0.21538895  0.22496533  0.78604394     0.01000
H438        H  0.25524163  0.17379961  0.74728218     0.06900
H439        H  0.16976641  0.27362709  0.74477085     0.06900
N440        N  0.28297798  0.32615094  0.78440057    -0.26000
N441        N  0.20184370  0.29056034  0.87153427    -0.25700
N442        N  0.30341083  0.22108930  0.78626074     0.01400
C443        C  0.31171135  0.34205036  0.92003468     0.42800
C444        C  0.23689726  0.19138424  0.90429013    -0.06900
N445        N  0.20330391  0.28959510  0.78432045    -0.25700
H446        H  0.16671190  0.27524242  0.90971265     0.06900
N447        N  0.32456103  0.31950139  0.90001928    -0.46900
H448        H  0.25348906  0.17561802  0.91265940     0.06900
C449        C  0.21060934  0.19576986  0.73640783     0.42600
C450        C  0.33791948  0.24554968  0.90277534    -0.06400
Co451      Co  0.27120862  0.21484802  0.82981255     0.73800
N452        N  0.19550585  0.21877718  0.90144165    -0.46600
C453        C  0.31254347  0.33754282  0.73397581     0.42900
N454        N  0.31020779  0.20258622  0.75688748    -0.46600
Co455      Co  0.20805160  0.25761522  0.82864575     0.73900
C456        C  0.18546638  0.29040200  0.75288350    -0.06900
C457        C  0.28320345  0.34698551  0.90206265    -0.06500
N458        N  0.31925068  0.24548617  0.78559653    -0.26000
N459        N  0.20987344  0.33365462  0.89998335    -0.46800
H460        H  0.26768732  0.35970319  0.74404151     0.06900
C461        C  0.23858294  0.18982759  0.75524661    -0.06900
Cl462      Cl  0.26076321  0.26809114  0.82897454    -0.49900
C463        C  0.20820228  0.19693863  0.92227259     0.42600
H464        H  0.35327847  0.26093239  0.74563065     0.06900
N465        N  0.19753621  0.21787746  0.75684256    -0.46600
C466        C  0.13878602  0.13202147  0.66571954    -0.06100
C467        C  0.11584708  0.13578229  0.69359810    -0.17200
C468        C  0.09319992  0.11506308  0.69722206     0.11100
C469        C  0.09226321  0.09061695  0.67096821    -0.06000
C470        C  0.11498582  0.08688615  0.97628399    -0.17200
C471        C  0.13855738  0.10662049  0.97422610     0.11100
S472        S  0.06650445  0.12075225  0.73645152    -0.32200
S473        S  0.16839636  0.09689031  0.94110585    -0.32200
H474        H  0.19054145  0.10734026  0.96621181     0.29200
H475        H  0.06063286  0.09065911  0.74299888     0.29100
H476        H  0.11575633  0.15484881  0.71321087     0.19700
H477        H  0.11473129  0.06790091  0.95651520     0.19700
C478        C  0.44023696  0.09973910  0.65982020    -0.06100
C479        C  0.44133436  0.12185717  0.68916476    -0.17200
C480        C  0.42236296  0.14624730  0.68873482     0.11100
C481        C  0.39973778  0.14767570  0.66018026    -0.06000
C482        C  0.39903730  0.12559566  0.96379648    -0.17200
C483        C  0.41964179  0.10257393  0.96239450     0.11100
S484        S  0.42999603  0.17563243  0.72354476    -0.32200
S485        S  0.41905705  0.07802431  0.92001923    -0.32200
H486        H  0.44924088  0.07190711  0.91947243     0.29200
H487        H  0.42171659  0.19854222  0.69790536     0.29100
H488        H  0.45786060  0.12058524  0.71192524     0.19700
H489        H  0.38243098  0.12625864  0.94115186     0.19700
C490        C  0.08450913  0.43793082  0.00319276    -0.06100
C491        C  0.08238209  0.41457804  0.69698994    -0.17200
C492        C  0.10148028  0.39037814  0.69486565     0.11100
C493        C  0.12508268  0.39040341  0.66708032    -0.06000
C494        C  0.12738180  0.41413645  0.97369471    -0.17200
C495        C  0.10688456  0.43717632  0.97386003     0.11100
S496        S  0.09279689  0.35930606  0.72619144    -0.32200
S497        S  0.10994456  0.46443101  0.93509339    -0.32200
H498        H  0.07973601  0.46963045  0.93167330     0.29200
H499        H  0.10148085  0.33771238  0.69820745     0.29100
H500        H  0.06474233  0.41456902  0.71880581     0.19700
H501        H  0.14503501  0.41454019  0.95194080     0.19700
C502        C  0.43156822  0.44405246  0.99740271    -0.06100
C503        C  0.42712673  0.42654035  0.96342606    -0.17200
C504        C  0.40713065  0.40305639  0.96362347     0.11100
C505        C  0.38686506  0.40005306  0.66235455    -0.06000
C506        C  0.39083687  0.41838393  0.69595639    -0.17200
C507        C  0.41393953  0.43869763  0.69807498     0.11100
S508        S  0.41177023  0.37576490  0.92475933    -0.32200
S509        S  0.41982987  0.45681875  0.74522347    -0.32200
H510        H  0.45018368  0.46063544  0.74033918     0.29200
H511        H  0.40318709  0.35170139  0.94850703     0.29100
H512        H  0.44101826  0.42973616  0.93748811     0.19700
H513        H  0.37615431  0.41682412  0.72129317     0.19700
C514        C  0.36113852  0.87915767  0.99470929     0.03200
C515        C  0.34652151  0.87275479  0.29223215    -0.13000
C516        C  0.32249200  0.85345626  0.29153087     0.00700
C517        C  0.31080626  0.84275160  0.32724612    -0.11500
C518        C  0.32441404  0.84936282  0.02989278     0.03200
C519        C  0.35005034  0.86642817  0.03004103    -0.10900
H520        H  0.35359766  0.88268074  0.26461945     0.08800
H521        H  0.29195626  0.82822421  0.32688441     0.06300
H522        H  0.36097613  0.86999970  0.05800790     0.06100
C523        C  0.14725447  0.86609115  0.99814199     0.03200
C524        C  0.15622429  0.85442145  0.29438149    -0.13000
C525        C  0.17650163  0.83116460  0.29211087     0.00700
C526        C  0.18724746  0.81867911  0.32702868    -0.11500
C527        C  0.17921953  0.83059937  0.03074401     0.03200
C528        C  0.16000023  0.85477000  0.03279111    -0.10900
H529        H  0.14732755  0.86323876  0.26720026     0.08800
H530        H  0.20274452  0.80053910  0.32531701     0.06300
H531        H  0.15467284  0.86445738  0.06147765     0.06100
C532        C  0.37663802  0.67138644  0.99400442     0.03200
C533        C  0.36659058  0.68387659  0.29163222    -0.13000
C534        C  0.34499746  0.70603767  0.29215343     0.00700
C535        C  0.33425102  0.71691094  0.99520707    -0.11500
C536        C  0.34349130  0.70439116  0.03088966     0.03200
C537        C  0.36368481  0.68100193  0.03008567    -0.10900
H538        H  0.37553375  0.67652905  0.26331671     0.08800
H539        H  0.31801658  0.73440947  0.99572169     0.06300
H540        H  0.36955377  0.67061316  0.05777083     0.06100
N541        N  0.00917683  0.97275671  0.33593481    -0.36600
N542        N  0.05655593  0.51588806  0.33859137    -0.57100
N543        N  0.01402250  0.56341775  0.33585116    -0.36600
N544        N  0.46662255  0.52020972  0.32977526    -0.57100
C545        C  0.03275591  0.95497707  0.32999236     0.27000
C546        C  0.48501691  0.95683672  0.32682549     0.27000
C547        C  0.03921650  0.57835478  0.32854208     0.27000
C548        C  0.49167485  0.58093376  0.32435315     0.27000
C549        C  0.07175588  0.99111914  0.34706693     0.35600
C550        C  0.07427815  0.53891795  0.34696029     0.35600
C551        C  0.44779335  0.99722600  0.33370244     0.35600
C552        C  0.45054412  0.54529008  0.33354283     0.35600
C553        C  0.02349501  0.92747166  0.31708946    -0.21900
C554        C  0.49355331  0.92840080  0.31590013    -0.21900
C555        C  0.03274090  0.60565016  0.31232441    -0.21900
C556        C  0.50278242  0.60731783  0.30981794    -0.21900
C557        C  0.09918957  0.49845070  0.36117815    -0.22900
C558        C  0.10078520  0.52876201  0.36115262    -0.22900
C559        C  0.41954718  0.50789910  0.33901883    -0.22900
C560        C  0.42135179  0.53819750  0.33957128    -0.22900
C561        C  0.06226080  0.96211359  0.33843600    -0.18300
C562        C  0.45552232  0.96678957  0.33049231    -0.18300
C563        C  0.46144100  0.57444261  0.32844069    -0.18300
C564        C  0.06775072  0.56873607  0.33839496    -0.18300
H565        H  0.03682888  0.90830515  0.31016588     0.14600
H566        H  0.48001943  0.90970744  0.30839576     0.14600
H567        H  0.04800937  0.62274487  0.30354820     0.14600
H568        H  0.49054650  0.62591222  0.29857053     0.14600
H569        H  0.11647782  0.98345785  0.36970976     0.12900
H570        H  0.11953077  0.54179481  0.36978112     0.12900
H571        H  0.39953600  0.99528723  0.34183274     0.12900
H572        H  0.40308134  0.55326089  0.34303504     0.12900
H573        H  0.00933378  0.99332220  0.34963608     0.26200
H574        H  0.01198749  0.54397007  0.35185442     0.26200
C575        C  0.16289863  0.65432000  0.99765538     0.03200
C576        C  0.17291796  0.66626065  0.29470555    -0.13000
C577        C  0.19704685  0.68548395  0.29369215     0.00700
C578        C  0.21042502  0.69394653  0.99589814    -0.11500
C579        C  0.19943795  0.68374331  0.03232755     0.03200
C580        C  0.17596773  0.66385285  0.03311461    -0.10900
H581        H  0.16237158  0.66017276  0.26720231     0.08800
H582        H  0.22860420  0.70932271  0.99530553     0.06300
H583        H  0.16806585  0.65562232  0.06144928     0.06100
C584        C  0.33275229  0.71698825  0.25473024     0.42500
N585        N  0.30299710  0.72222699  0.20644268     0.01400
C586        C  0.28424998  0.84399237  0.08600678    -0.06500
H587        H  0.26648996  0.86297186  0.24324554     0.06900
C588        C  0.18245849  0.79204698  0.23505730    -0.06800
Co589      Co  0.31349742  0.77857244  0.16216368     0.74200
N590        N  0.28204778  0.82743692  0.20520615    -0.25400
Co591      Co  0.25032462  0.82130951  0.16149791     0.74100
C592        C  0.18744684  0.82085977  0.25325374     0.42600
N593        N  0.21425061  0.72579652  0.20593704     0.01000
N594        N  0.21767569  0.81492921  0.20465095     0.01100
N595        N  0.32547872  0.81632693  0.08883933    -0.46900
H596        H  0.35391636  0.76230526  0.24327720     0.06900
N597        N  0.30631828  0.81154549  0.20495626     0.01400
N598        N  0.21910496  0.81400460  0.11798995     0.01100
C599        C  0.19179905  0.81861844  0.06724838     0.42700
N600        N  0.23854146  0.70994750  0.20672465    -0.25500
C601        C  0.33771345  0.74413393  0.08758636    -0.06400
N602        N  0.31056497  0.70391191  0.23518801    -0.46600
N603        N  0.21279920  0.83206192  0.08844522    -0.46800
C604        C  0.33188154  0.71555238  0.06906704     0.42500
N605        N  0.30712942  0.81010505  0.11838326     0.01400
N606        N  0.23950245  0.70878669  0.11940586    -0.25500
N607        N  0.31880291  0.74665520  0.20617338    -0.26000
N608        N  0.21542028  0.72494353  0.11936998     0.01000
H609        H  0.25528648  0.67379623  0.08058940     0.06900
H610        H  0.16978183  0.77360183  0.07810279     0.06900
N611        N  0.28297642  0.82614236  0.11774321    -0.26000
N612        N  0.20185614  0.79052568  0.20487382    -0.25700
N613        N  0.30344291  0.72108636  0.11958519     0.01400
C614        C  0.31172116  0.84204728  0.25336358     0.42800
C615        C  0.23693448  0.69135445  0.23761122    -0.06900
N616        N  0.20331564  0.78957028  0.11765839    -0.25700
H617        H  0.16672045  0.77520277  0.24304219     0.06900
N618        N  0.32457320  0.81950017  0.23334738    -0.46900
H619        H  0.25353020  0.67559216  0.24597940     0.06900
C620        C  0.21065016  0.69575994  0.06972049     0.42600
C621        C  0.33794671  0.74554773  0.23610145    -0.06400
Co622      Co  0.27124213  0.71483345  0.16313660     0.73800
N623        N  0.19553579  0.71873574  0.23476338    -0.46600
C624        C  0.31252398  0.83753179  0.06730105     0.42900
N625        N  0.31024336  0.70258840  0.09020766    -0.46600
Co626      Co  0.20807302  0.75758583  0.16197802     0.73900
C627        C  0.18547719  0.79037940  0.08622182    -0.06900
C628        C  0.28320790  0.84697211  0.23540157    -0.06500
N629        N  0.31927444  0.74548866  0.11892217    -0.26000
N630        N  0.20987083  0.83362411  0.23332060    -0.46800
H631        H  0.26766686  0.85968552  0.07738374     0.06900
C632        C  0.23862397  0.68981852  0.08855948    -0.06900
Cl633      Cl  0.26078187  0.76807424  0.16230841    -0.49900
C634        C  0.20823674  0.69689888  0.25559236     0.42600
H635        H  0.35329226  0.76095093  0.07895165     0.06900
N636        N  0.19757074  0.71785866  0.09016423    -0.46600
C637        C  0.13880408  0.63203416  0.99904442    -0.06100
C638        C  0.11587112  0.63579476  0.02693233    -0.17200
C639        C  0.09322172  0.61507829  0.03055874     0.11100
C640        C  0.09227475  0.59063838  0.00429554    -0.06000
C641        C  0.11498456  0.58688402  0.30961424    -0.17200
C642        C  0.13856463  0.60660765  0.30756001     0.11100
S643        S  0.06653928  0.62075925  0.06980646    -0.32200
S644        S  0.16840907  0.59685828  0.27445898    -0.32200
H645        H  0.19055160  0.60730302  0.29957327     0.29200
H646        H  0.06066976  0.59066457  0.07634522     0.29100
H647        H  0.11578797  0.65485744  0.04655210     0.19700
H648        H  0.11472499  0.56789789  0.28984784     0.19700
C649        C  0.44023826  0.59973949  0.99311986    -0.06100
C650        C  0.44134200  0.62186049  0.02245947    -0.17200
C651        C  0.42237370  0.64625233  0.02202943     0.11100
C652        C  0.39974507  0.64768011  0.99348080    -0.06000
C653        C  0.39908910  0.62560791  0.29711761    -0.17200
C654        C  0.41969355  0.60258711  0.29571830     0.11100
S655        S  0.43001437  0.67563997  0.05683225    -0.32200
S656        S  0.41911685  0.57804067  0.25333953    -0.32200
H657        H  0.44930290  0.57193387  0.25279483     0.29200
H658        H  0.42173645  0.69854821  0.03118940     0.29100
H659        H  0.45787114  0.62058947  0.04521589     0.19700
H660        H  0.38248464  0.62627086  0.27447020     0.19700
C661        C  0.08451715  0.93790733  0.33656016    -0.06100
C662        C  0.08237233  0.91454717  0.03030225    -0.17200
C663        C  0.10147110  0.89034749  0.02817227     0.11100
C664        C  0.12509293  0.89039123  0.00041857    -0.06000
C665        C  0.12738846  0.91411487  0.30704988    -0.17200
C666        C  0.10689143  0.93715604  0.30722452     0.11100
S667        S  0.09276538  0.85925192  0.05944499    -0.32200
S668        S  0.10994761  0.96441405  0.26846137    -0.32200
H669        H  0.07973878  0.96961429  0.26504694     0.29200
H670        H  0.10147830  0.83767763  0.03144997     0.29100
H671        H  0.06471794  0.91452338  0.05209592     0.19700
H672        H  0.14504007  0.91452087  0.28529385     0.19700
C673        C  0.43158039  0.94403411  0.33073297    -0.06100
C674        C  0.42713480  0.92652330  0.29675622    -0.17200
C675        C  0.40714010  0.90303833  0.29695719     0.11100
C676        C  0.38685246  0.90004641  0.99571289    -0.06000
C677        C  0.39083554  0.91836376  0.02932559    -0.17200
C678        C  0.41394475  0.93866915  0.03144766     0.11100
S679        S  0.41177330  0.87574905  0.25808879    -0.32200
S680        S  0.41986267  0.95676176  0.07860869    -0.32200
H681        H  0.45021535  0.96057280  0.07369911     0.29200
H682        H  0.40319173  0.85168441  0.28183566     0.29100
H683        H  0.44101990  0.92972295  0.27081289     0.19700
H684        H  0.37615874  0.91679883  0.05466787     0.19700
C685        C  0.36115575  0.87914885  0.32803015     0.03200
C686        C  0.34651543  0.87277723  0.62554068    -0.13000
C687        C  0.32249029  0.85347232  0.62483662     0.00700
C688        C  0.31080790  0.84276164  0.66055097    -0.11500
C689        C  0.32443051  0.84936565  0.36323264     0.03200
C690        C  0.35006964  0.86642793  0.36336970    -0.10900
H691        H  0.35359057  0.88270610  0.59792919     0.08800
H692        H  0.29196161  0.82822959  0.66018739     0.06300
H693        H  0.36099805  0.87000595  0.39133357     0.06100
C694        C  0.14723183  0.86607101  0.33147503     0.03200
C695        C  0.15621778  0.85441342  0.62768659    -0.13000
C696        C  0.17650081  0.83116214  0.62542611     0.00700
C697        C  0.18725379  0.81869112  0.66034956    -0.11500
C698        C  0.17920330  0.83058160  0.36407068     0.03200
C699        C  0.15998713  0.85475465  0.36612073    -0.10900
H700        H  0.14731737  0.86322102  0.60050169     0.08800
H701        H  0.20275547  0.80055519  0.65864523     0.06300
H702        H  0.15467038  0.86444748  0.39480731     0.06100
C703        C  0.37665584  0.67138241  0.32735469     0.03200
C704        C  0.36659113  0.68387437  0.62496342    -0.13000
C705        C  0.34499891  0.70603696  0.62548369     0.00700
C706        C  0.33425277  0.71689141  0.32854590    -0.11500
C707        C  0.34349825  0.70438026  0.36423105     0.03200
C708        C  0.36370067  0.68099913  0.36343351    -0.10900
H709        H  0.37553456  0.67652699  0.59664751     0.08800
H710        H  0.31801204  0.73438394  0.32905643     0.06300
H711        H  0.36957197  0.67061549  0.39112108     0.06100
N712        N  0.00917150  0.97275882  0.66923421    -0.36600
N713        N  0.05656368  0.51589233  0.67192024    -0.57100
N714        N  0.01403146  0.56342681  0.66917791    -0.36600
N715        N  0.46663242  0.52021183  0.66311643    -0.57100
C716        C  0.03275004  0.95497953  0.66326040     0.27000
C717        C  0.48501967  0.95684285  0.66017852     0.27000
C718        C  0.03922577  0.57836028  0.66187369     0.27000
C719        C  0.49169267  0.58093419  0.65768609     0.27000
C720        C  0.07175386  0.99111607  0.68034373     0.35600
C721        C  0.07428858  0.53892152  0.68028412     0.35600
C722        C  0.44780175  0.99723888  0.66705150     0.35600
C723        C  0.45055624  0.54529493  0.66687087     0.35600
C724        C  0.02348730  0.92747905  0.65034420    -0.21900
C725        C  0.49355231  0.92840555  0.64925912    -0.21900
C726        C  0.03275189  0.60565627  0.64565398    -0.21900
C727        C  0.50280486  0.60731740  0.64315242    -0.21900
C728        C  0.09920277  0.49845222  0.69448551    -0.22900
C729        C  0.10079896  0.52876359  0.69446315    -0.22900
C730        C  0.41955419  0.50790806  0.67234992    -0.22900
C731        C  0.42136222  0.53820632  0.67289299    -0.22900
C732        C  0.06225577  0.96211398  0.67169930    -0.18300
C733        C  0.45552676  0.96680178  0.66383932    -0.18300
C734        C  0.46145665  0.57444668  0.66176574    -0.18300
C735        C  0.06775988  0.56874165  0.67172738    -0.18300
H736        H  0.03682091  0.90831586  0.64340017     0.14600
H737        H  0.48001557  0.90971319  0.64175617     0.14600
H738        H  0.04802140  0.62275012  0.63687809     0.14600
H739        H  0.49057191  0.62591265  0.63190277     0.14600
H740        H  0.11647863  0.98344546  0.70297004     0.12900
H741        H  0.11954689  0.54179519  0.70308555     0.12900
H742        H  0.39954439  0.99530681  0.67518228     0.12900
H743        H  0.40309273  0.55327195  0.67634726     0.12900
H744        H  0.00933193  0.99330313  0.68294425     0.26200
H745        H  0.01199425  0.54396751  0.68518832     0.26200
C746        C  0.16289353  0.65429456  0.33098993     0.03200
C747        C  0.17291706  0.66627950  0.62804556    -0.13000
C748        C  0.19704812  0.68549930  0.62703230     0.00700
C749        C  0.21042836  0.69391027  0.32923742    -0.11500
C750        C  0.19943456  0.68371284  0.36566674     0.03200
C751        C  0.17595931  0.66382816  0.36645103    -0.10900
H752        H  0.16237192  0.66019146  0.60054152     0.08800
H753        H  0.22860989  0.70928366  0.32864668     0.06300
H754        H  0.16805031  0.65560280  0.39478495     0.06100
C755        C  0.33275270  0.71698708  0.58805989     0.42500
N756        N  0.30299582  0.72222426  0.53977298     0.01400
C757        C  0.28425710  0.84399222  0.41933369    -0.06500
H758        H  0.26648868  0.86298100  0.57654643     0.06900
C759        C  0.18245610  0.79204014  0.56837607    -0.06800
Co760      Co  0.31349431  0.77856809  0.49549035     0.74200
N761        N  0.28204304  0.82743587  0.53852216    -0.25400
Co762      Co  0.25032057  0.82130138  0.49481286     0.74100
C763        C  0.18744734  0.82085233  0.58657237     0.42600
N764        N  0.21424986  0.72579229  0.53926363     0.01000
N765        N  0.21767149  0.81492206  0.53796496     0.01100
N766        N  0.32548773  0.81633065  0.42217860    -0.46900
H767        H  0.35391275  0.76230579  0.57660639     0.06900
N768        N  0.30631393  0.81154525  0.53827670     0.01400
N769        N  0.21910156  0.81399033  0.45130486     0.01100
C770        C  0.19178901  0.81860226  0.40057057     0.42700
N771        N  0.23854151  0.70994475  0.54005618    -0.25500
C772        C  0.33771418  0.74412511  0.42092084    -0.06400
N773        N  0.31056605  0.70390943  0.56851770    -0.46600
N774        N  0.21279140  0.83204719  0.42176153    -0.46800
C775        C  0.33188449  0.71554240  0.40240458     0.42500
N776        N  0.30712912  0.81009894  0.45170789     0.01400
N777        N  0.23950097  0.70877259  0.45273680    -0.25500
N778        N  0.31879960  0.74665366  0.53950362    -0.26000
N779        N  0.21541780  0.72492777  0.45269785     0.01000
H780        H  0.25528360  0.67377399  0.41393247     0.06900
H781        H  0.16977404  0.77358538  0.41143049     0.06900
N782        N  0.28297493  0.82613415  0.45106125    -0.26000
N783        N  0.20185198  0.79051852  0.53819029    -0.25700
N784        N  0.30344136  0.72107902  0.45291648     0.01400
C785        C  0.31172144  0.84206138  0.58666815     0.42800
C786        C  0.23693758  0.69136005  0.57095199    -0.06900
N787        N  0.20331300  0.78955535  0.45097669    -0.25700
H788        H  0.16671899  0.77519587  0.57636405     0.06900
N789        N  0.32457127  0.81950863  0.56666075    -0.46900
H790        H  0.25353520  0.67560171  0.57932745     0.06900
C791        C  0.21064416  0.69573101  0.40306153     0.42600
C792        C  0.33794383  0.74554755  0.56943157    -0.06400
Co793      Co  0.27124110  0.71482680  0.49646719     0.73800
N794        N  0.19553686  0.71873844  0.56809448    -0.46600
C795        C  0.31254019  0.83754273  0.40064530     0.42900
N796        N  0.31024437  0.70257931  0.42354216    -0.46600
Co797      Co  0.20807055  0.75757537  0.49529970     0.73900
C798        C  0.18547097  0.79036292  0.41954435    -0.06900
C799        C  0.28320569  0.84697913  0.56870840    -0.06500
N800        N  0.31927260  0.74548155  0.45225331    -0.26000
N801        N  0.20986903  0.83361700  0.56663550    -0.46800
H802        H  0.26767595  0.85968715  0.41070949     0.06900
C803        C  0.23862081  0.68979717  0.42189822    -0.06900
Cl804      Cl  0.26077917  0.76806697  0.49563109    -0.49900
C805        C  0.20824056  0.69690876  0.58893264     0.42600
H806        H  0.35329332  0.76094161  0.41228680     0.06900
N807        N  0.19756584  0.71783435  0.42349810    -0.46600
C808        C  0.13879262  0.63201659  0.33237666    -0.06100
C809        C  0.11585289  0.63579192  0.36025033    -0.17200
C810        C  0.09319871  0.61508130  0.36387899     0.11100
C811        C  0.09225360  0.59063328  0.33763004    -0.06000
C812        C  0.11498822  0.58690063  0.64294467    -0.17200
C813        C  0.13856399  0.60662932  0.64088956     0.11100
S814        S  0.06650963  0.62077867  0.40311405    -0.32200
S815        S  0.16840279  0.59689083  0.60777345    -0.32200
H816        H  0.19054873  0.60732866  0.63288720     0.29200
H817        H  0.06064192  0.59068642  0.40967597     0.29100
H818        H  0.11576948  0.65486050  0.37985926     0.19700
H819        H  0.11472861  0.56791824  0.62317133     0.19700
C820        C  0.44024362  0.59972551  0.32648455    -0.06100
C821        C  0.44135023  0.62184777  0.35582247    -0.17200
C822        C  0.42238746  0.64624390  0.35538720     0.11100
C823        C  0.39976088  0.64767446  0.32683546    -0.06000
C824        C  0.39910270  0.62561194  0.63044012    -0.17200
C825        C  0.41971224  0.60259497  0.62903677     0.11100
S826        S  0.43003280  0.67563243  0.39018683    -0.32200
S827        S  0.41914240  0.57805429  0.58665151    -0.32200
H828        H  0.44932753  0.57194317  0.58611774     0.29200
H829        H  0.42175576  0.69854032  0.36454304     0.29100
H830        H  0.45787872  0.62057521  0.37857985     0.19700
H831        H  0.38250066  0.62627531  0.60778935     0.19700
C832        C  0.08450781  0.93790368  0.66982379    -0.06100
C833        C  0.08236876  0.91454781  0.36366004    -0.17200
C834        C  0.10146545  0.89034629  0.36153339     0.11100
C835        C  0.12507246  0.89037417  0.33375523    -0.06000
C836        C  0.12738238  0.91410867  0.64032797    -0.17200
C837        C  0.10688498  0.93714926  0.64049248     0.11100
S838        S  0.09277410  0.85926881  0.39284522    -0.32200
S839        S  0.10994500  0.96440283  0.60172439    -0.32200
H840        H  0.07973691  0.96960716  0.59830982     0.29200
H841        H  0.10146418  0.83767979  0.36485814     0.29100
H842        H  0.06472587  0.91453645  0.38547135     0.19700
H843        H  0.14503670  0.91451182  0.61857536     0.19700
C844        C  0.43158087  0.94404973  0.66406939    -0.06100
C845        C  0.42713630  0.92654409  0.63008759    -0.17200
C846        C  0.40713621  0.90306352  0.63027811     0.11100
C847        C  0.38686652  0.90004251  0.32902050    -0.06000
C848        C  0.39084182  0.91837458  0.36261995    -0.17200
C849        C  0.41394371  0.93868918  0.36473084     0.11100
S850        S  0.41176909  0.87577827  0.59140487    -0.32200
S851        S  0.41983963  0.95681307  0.41187603    -0.32200
H852        H  0.45019234  0.96063244  0.40698178     0.29200
H853        H  0.40318553  0.85171137  0.61514633     0.29100
H854        H  0.44102672  0.92974325  0.60414912     0.19700
H855        H  0.37616217  0.91681599  0.38795992     0.19700
C856        C  0.36114804  0.87917220  0.66134038     0.03200
C857        C  0.34650791  0.87277137  0.95890580    -0.13000
C858        C  0.32248212  0.85346839  0.95819088     0.00700
C859        C  0.31079451  0.84275367  0.99390046    -0.11500
C860        C  0.32443006  0.84937700  0.69653869     0.03200
C861        C  0.35006421  0.86644642  0.69667807    -0.10900
H862        H  0.35358607  0.88270448  0.93129883     0.08800
H863        H  0.29194739  0.82822288  0.99352951     0.06300
H864        H  0.36099139  0.87002516  0.72464252     0.06100
C865        C  0.14722573  0.86607206  0.66477439     0.03200
C866        C  0.15625519  0.85444738  0.96104955    -0.13000
C867        C  0.17653192  0.83119017  0.95878123     0.00700
C868        C  0.18727203  0.81870164  0.99370142    -0.11500
C869        C  0.17920849  0.83060180  0.69738717     0.03200
C870        C  0.15998422  0.85476888  0.69942610    -0.10900
H871        H  0.14736321  0.86326837  0.93386760     0.08800
H872        H  0.20276885  0.80056161  0.99199169     0.06300
H873        H  0.15466351  0.86446736  0.72810823     0.06100
C874        C  0.37665629  0.67137973  0.66068650     0.03200
C875        C  0.36657495  0.68388655  0.95828485    -0.13000
C876        C  0.34499024  0.70605610  0.95881161     0.00700
C877        C  0.33425552  0.71689301  0.66187611    -0.11500
C878        C  0.34349946  0.70438216  0.69756247     0.03200
C879        C  0.36369952  0.68099784  0.69676522    -0.10900
H880        H  0.37551505  0.67653882  0.92996734     0.08800
H881        H  0.31801676  0.73438752  0.66238559     0.06300
H882        H  0.36956845  0.67061364  0.72445332     0.06100
N883        N  0.00918709  0.97275853  0.00259913    -0.36600
N884        N  0.05656410  0.51589537  0.00523286    -0.57100
N885        N  0.01404166  0.56343329  0.00250143    -0.36600
N886        N  0.46661412  0.52022268  0.99643150    -0.57100
C887        C  0.03277119  0.95498375  0.99664010     0.27000
C888        C  0.48500982  0.95682907  0.99353177     0.27000
C889        C  0.03923788  0.57836577  0.99519895     0.27000
C890        C  0.49166999  0.58094463  0.99099198     0.27000
C891        C  0.07175848  0.99112993  0.01374653     0.35600
C892        C  0.07429437  0.53892005  0.01359824     0.35600
C893        C  0.44778566  0.99721684  0.00042856     0.35600
C894        C  0.45053684  0.54530470  0.00018839     0.35600
C895        C  0.02351820  0.92748334  0.98371083    -0.21900
C896        C  0.49354355  0.92839340  0.98260643    -0.21900
C897        C  0.03276758  0.60566382  0.97898417    -0.21900
C898        C  0.50277993  0.60732677  0.97645227    -0.21900
C899        C  0.09920016  0.49844497  0.02779350    -0.22900
C900        C  0.10080313  0.52875581  0.02777336    -0.22900
C901        C  0.41953711  0.50791657  0.00566996    -0.22900
C902        C  0.42134367  0.53821479  0.00621428    -0.22900
C903        C  0.06227258  0.96212412  0.00509935    -0.18300
C904        C  0.45551634  0.96678192  0.99721307    -0.18300
C905        C  0.46143527  0.57445626  0.99507911    -0.18300
C906        C  0.06777063  0.56874206  0.00504934    -0.18300
H907        H  0.03685727  0.90832337  0.97677073     0.14600
H908        H  0.48000711  0.90969844  0.97511381     0.14600
H909        H  0.04803928  0.62275646  0.97021141     0.14600
H910        H  0.49054534  0.62592063  0.96520162     0.14600
H911        H  0.11647678  0.98347701  0.03640626     0.12900
H912        H  0.11955384  0.54178301  0.03639580     0.12900
H913        H  0.39953181  0.99527495  0.00859887     0.12900
H914        H  0.40307382  0.55327972  0.00967071     0.12900
H915        H  0.00933770  0.99330154  0.01631374     0.26200
H916        H  0.01200167  0.54397784  0.01850627     0.26200
C917        C  0.16288960  0.65431654  0.66432984     0.03200
C918        C  0.17291538  0.66629302  0.96137084    -0.13000
C919        C  0.19704142  0.68552003  0.96035505     0.00700
C920        C  0.21042636  0.69393039  0.66257712    -0.11500
C921        C  0.19942652  0.68374084  0.69900647     0.03200
C922        C  0.17595111  0.66385624  0.69979150    -0.10900
H923        H  0.16236691  0.66020625  0.93386873     0.08800
H924        H  0.22860927  0.70930208  0.66198551     0.06300
H925        H  0.16804064  0.65563429  0.72812607     0.06100
C926        C  0.33274429  0.71701051  0.92139088     0.42500
N927        N  0.30299294  0.72224865  0.87309928     0.01400
C928        C  0.28426239  0.84401039  0.75264802    -0.06500
H929        H  0.26649166  0.86299379  0.90988602     0.06900
C930        C  0.18247466  0.79207422  0.90172093    -0.06800
Co931      Co  0.31349922  0.77858900  0.82881209     0.74200
N932        N  0.28205307  0.82746171  0.87184405    -0.25400
Co933      Co  0.25032938  0.82133158  0.82813646     0.74100
C934        C  0.18747465  0.82088257  0.91992322     0.42600
N935        N  0.21424789  0.72582662  0.87259658     0.01000
N936        N  0.21768270  0.81495737  0.87129556     0.01100
N937        N  0.32548931  0.81634267  0.75548796    -0.46900
H938        H  0.35391430  0.76232419  0.90993302     0.06900
N939        N  0.30632158  0.81156736  0.87160014     0.01400
N940        N  0.21910663  0.81402301  0.78462975     0.01100
C941        C  0.19179350  0.81863023  0.73389363     0.42700
N942        N  0.23853746  0.70997580  0.87338588    -0.25500
C943        C  0.33771890  0.74413472  0.75424729    -0.06400
N944        N  0.31055772  0.70393470  0.90184719    -0.46600
N945        N  0.21279802  0.83207629  0.75508101    -0.46800
C946        C  0.33188734  0.71554970  0.73573632     0.42500
N947        N  0.30713500  0.81011893  0.78502568     0.01400
N948        N  0.23949612  0.70880420  0.78606867    -0.25500
N949        N  0.31880095  0.74667531  0.87282787    -0.26000
N950        N  0.21541422  0.72496136  0.78603066     0.01000
H951        H  0.25527430  0.67380177  0.74726831     0.06900
H952        H  0.16977589  0.77361626  0.74476489     0.06900
N953        N  0.28298269  0.82615759  0.78438113    -0.26000
N954        N  0.20186103  0.79055519  0.87152375    -0.25700
N955        N  0.30343918  0.72109878  0.78624264     0.01400
C956        C  0.31171915  0.84206535  0.92001473     0.42800
C957        C  0.23692905  0.69138506  0.90427460    -0.06900
N958        N  0.20331554  0.78958968  0.78430746    -0.25700
H959        H  0.16674008  0.77522920  0.90971555     0.06900
N960        N  0.32457203  0.81951801  0.89999909    -0.46900
H961        H  0.25352334  0.67562157  0.91264420     0.06900
C962        C  0.21063609  0.69576109  0.73639936     0.42600
C963        C  0.33794302  0.74556817  0.90275842    -0.06400
Co964      Co  0.27123750  0.71485414  0.82979556     0.73800
N965        N  0.19553235  0.71876938  0.90142359    -0.46600
C966        C  0.31254032  0.83755223  0.73395120     0.42900
N967        N  0.31024230  0.70259403  0.75687362    -0.46600
Co968      Co  0.20807205  0.75761078  0.82863233     0.73900
C969        C  0.18547332  0.79039451  0.75287532    -0.06900
C970        C  0.28321046  0.84699515  0.90204220    -0.06500
N971        N  0.31927434  0.74549873  0.78557663    -0.26000
N972        N  0.20989112  0.83364869  0.89997634    -0.46800
H973        H  0.26768177  0.85970591  0.74402326     0.06900
C974        C  0.23861325  0.68982701  0.75523302    -0.06900
Cl975      Cl  0.26078223  0.76809538  0.82895723    -0.49900
C976        C  0.20823161  0.69693279  0.92225466     0.42600
H977        H  0.35330212  0.76094738  0.74561265     0.06900
N978        N  0.19756017  0.71786729  0.75683349    -0.46600
C979        C  0.13879193  0.63203416  0.66571511    -0.06100
C980        C  0.11585484  0.63580079  0.69359501    -0.17200
C981        C  0.09320482  0.61508539  0.69722280     0.11100
C982        C  0.09226108  0.59064057  0.67096774    -0.06000
C983        C  0.11500018  0.58690220  0.97626870    -0.17200
C984        C  0.13857535  0.60663203  0.97421430     0.11100
S985        S  0.06651824  0.62077363  0.73646331    -0.32200
S986        S  0.16841234  0.59689990  0.94109166    -0.32200
H987        H  0.19055986  0.60734192  0.96619984     0.29200
H988        H  0.06065272  0.59067977  0.74301498     0.29100
H989        H  0.11576976  0.65486652  0.71320914     0.19700
H990        H  0.11473909  0.56792263  0.95649060     0.19700
C991        C  0.44026009  0.59973105  0.65980601    -0.06100
C992        C  0.44135827  0.62184773  0.68915200    -0.17200
C993        C  0.42238888  0.64623942  0.68872383     0.11100
C994        C  0.39976511  0.64767287  0.66016703    -0.06000
C995        C  0.39907705  0.62561598  0.96375918    -0.17200
C996        C  0.41968664  0.60259935  0.96235504     0.11100
S997        S  0.43002257  0.67561875  0.72354198    -0.32200
S998        S  0.41911385  0.57805535  0.91997343    -0.32200
H999        H  0.44930002  0.57194904  0.91943242     0.29200
H1000       H  0.42174984  0.69853268  0.69790538     0.29100
H1001       H  0.45788356  0.62057290  0.71191376     0.19700
H1002       H  0.38247189  0.62627803  0.94111284     0.19700
C1003       C  0.08453368  0.93792070  0.00322521    -0.06100
C1004       C  0.08235473  0.91454642  0.69692650    -0.17200
C1005       C  0.10145286  0.89034606  0.69481123     0.11100
C1006       C  0.12506403  0.89037241  0.66704026    -0.06000
C1007       C  0.12742197  0.91414426  0.97373546    -0.17200
C1008       C  0.10692358  0.93718441  0.97391026     0.11100
S1009       S  0.09276139  0.85927356  0.72613189    -0.32200
S1010       S  0.10999701  0.96445929  0.93517127    -0.32200
H1011       H  0.07978911  0.96965317  0.93172827     0.29200
H1012       H  0.10146291  0.83767973  0.69815810     0.29100
H1013       H  0.06470925  0.91453746  0.71873401     0.19700
H1014       H  0.14508473  0.91456009  0.95199587     0.19700
C1015       C  0.43157529  0.94402606  0.99744813    -0.06100
C1016       C  0.42712429  0.92652831  0.96346125    -0.17200
C1017       C  0.40712667  0.90304653  0.96365165     0.11100
C1018       C  0.38685801  0.90006737  0.66233617    -0.06000
C1019       C  0.39083250  0.91839510  0.69594042    -0.17200
C1020       C  0.41393905  0.93870374  0.69806200     0.11100
S1021       S  0.41176070  0.87576219  0.92477725    -0.32200
S1022       S  0.41983672  0.95681629  0.74521464    -0.32200
H1023       H  0.45019102  0.96062686  0.74032578     0.29200
H1024       H  0.40317756  0.85169455  0.94851784     0.29100
H1025       H  0.44100921  0.92973336  0.93751909     0.19700
H1026       H  0.37614966  0.91683618  0.72127706     0.19700
C1027       C  0.86114221  0.37919039  0.99468680     0.03200
C1028       C  0.84651488  0.37277618  0.29220478    -0.13000
C1029       C  0.82248570  0.35347660  0.29150357     0.00700
C1030       C  0.81080157  0.34277003  0.32721957    -0.11500
C1031       C  0.82442519  0.34939880  0.02989508     0.03200
C1032       C  0.85005742  0.36647216  0.03002973    -0.10900
H1033       H  0.85359168  0.38270223  0.26459204     0.08800
H1034       H  0.79195260  0.32824165  0.32685788     0.06300
H1035       H  0.86098281  0.37005883  0.05799384     0.06100
C1036       C  0.64721902  0.36608253  0.99812022     0.03200
C1037       C  0.65622744  0.35442748  0.29437602    -0.13000
C1038       C  0.67650895  0.33117557  0.29211040     0.00700
C1039       C  0.68725899  0.31869713  0.32703084    -0.11500
C1040       C  0.67920155  0.33060736  0.03072202     0.03200
C1041       C  0.65997779  0.35477390  0.03276808    -0.10900
H1042       H  0.64732803  0.36323940  0.26719307     0.08800
H1043       H  0.70275899  0.30055968  0.32532269     0.06300
H1044       H  0.65465941  0.36446863  0.06145324     0.06100
C1045       C  0.87662990  0.17137860  0.99402457     0.03200
C1046       C  0.86657673  0.18388793  0.29160090    -0.13000
C1047       C  0.84497985  0.20604565  0.29212899     0.00700
C1048       C  0.83423471  0.21689681  0.99521227    -0.11500
C1049       C  0.84347332  0.20438129  0.03089758     0.03200
C1050       C  0.86366989  0.18099444  0.03010145    -0.10900
H1051       H  0.87552044  0.17654678  0.26328274     0.08800
H1052       H  0.81799823  0.23439367  0.99572167     0.06300
H1053       H  0.86953484  0.17060741  0.05778914     0.06100
N1054       N  0.50918396  0.47275613  0.33591208    -0.36600
N1055       N  0.55655427  0.01589330  0.33856269    -0.57100
N1056       N  0.51401609  0.06341972  0.33582608    -0.36600
N1057       N  0.96662306  0.02022688  0.32975545    -0.57100
C1058       C  0.53276498  0.45497957  0.32995057     0.27000
C1059       C  0.98501541  0.45684198  0.32684716     0.27000
C1060       C  0.53920750  0.07835798  0.32852393     0.27000
C1061       C  0.99168399  0.08094411  0.32432457     0.27000
C1062       C  0.57176393  0.49112692  0.34702155     0.35600
C1063       C  0.57427604  0.03892439  0.34692998     0.35600
C1064       C  0.94779694  0.49723798  0.33372132     0.35600
C1065       C  0.95054562  0.04531004  0.33350097     0.35600
C1066       C  0.52350611  0.42747305  0.31705044    -0.21900
C1067       C  0.99354834  0.42840414  0.31593265    -0.21900
C1068       C  0.53272770  0.10565359  0.31230686    -0.21900
C1069       C  0.00280074  0.10732492  0.30978964    -0.21900
C1070       C  0.59919380  0.99845711  0.36113185    -0.22900
C1071       C  0.60078649  0.02876888  0.36111150    -0.22900
C1072       C  0.91954249  0.00792420  0.33896566    -0.22900
C1073       C  0.92135021  0.03822224  0.33950860    -0.22900
C1074       C  0.56226965  0.46212207  0.33838570    -0.18300
C1075       C  0.95552284  0.46680157  0.33050458    -0.18300
C1076       C  0.96144769  0.07446114  0.32840029    -0.18300
C1077       C  0.56774437  0.06874433  0.33837422    -0.18300
H1078       H  0.53684198  0.40830972  0.31011750     0.14600
H1079       H  0.98001187  0.40971167  0.30842935     0.14600
H1080       H  0.54799361  0.12275120  0.30353251     0.14600
H1081       H  0.99057152  0.12592217  0.29853811     0.14600
H1082       H  0.61648783  0.48346456  0.36965710     0.12900
H1083       H  0.61953218  0.04180238  0.36973654     0.12900
H1084       H  0.89954079  0.49530406  0.34186473     0.12900
H1085       H  0.90308006  0.05328810  0.34295272     0.12900
H1086       H  0.50934197  0.49330675  0.34961081     0.26200
H1087       H  0.51198218  0.04395447  0.35183741     0.26200
C1088       C  0.66285684  0.15433139  0.99763575     0.03200
C1089       C  0.67289192  0.16630420  0.29470897    -0.13000
C1090       C  0.69701996  0.18552872  0.29369995     0.00700
C1091       C  0.71039871  0.19394080  0.99590427    -0.11500
C1092       C  0.69939639  0.18374376  0.03232901     0.03200
C1093       C  0.67591741  0.16386202  0.03310312    -0.10900
H1094       H  0.66234498  0.16022080  0.26720397     0.08800
H1095       H  0.72858342  0.20931049  0.99532062     0.06300
H1096       H  0.66800343  0.15563486  0.06143343     0.06100
C1097       C  0.83273055  0.21699941  0.25470981     0.42500
N1098       N  0.80296987  0.22224287  0.20642930     0.01400
C1099       C  0.78425323  0.34402598  0.08600069    -0.06500
H1100       H  0.76648381  0.36299612  0.24321786     0.06900
C1101       C  0.68245164  0.29206555  0.23504640    -0.06800
Co1102     Co  0.81347782  0.27858489  0.16214430     0.74200
N1103       N  0.78203559  0.32745577  0.20518278    -0.25400
Co1104     Co  0.75031159  0.32132777  0.16147431     0.74100
C1105       C  0.68745319  0.32087090  0.25325389     0.42600
N1106       N  0.71422374  0.22582246  0.20592686     0.01000
N1107       N  0.71766391  0.31494920  0.20462996     0.01100
N1108       N  0.82547818  0.31635527  0.08883607    -0.46900
H1109       H  0.85390037  0.26231291  0.24325130     0.06900
N1110       N  0.80630421  0.31156161  0.20493402     0.01400
N1111       N  0.71909102  0.31402078  0.11796604     0.01100
C1112       C  0.69178482  0.31863060  0.06722498     0.42700
N1113       N  0.73851339  0.20997196  0.20671850    -0.25500
C1114       C  0.83769233  0.24413342  0.08757872    -0.06400
N1115       N  0.81053898  0.20392653  0.23517250    -0.46600
N1116       N  0.71278669  0.33207537  0.08841766    -0.46800
C1117       C  0.83186122  0.21554817  0.06906958     0.42500
N1118       N  0.80711755  0.31012033  0.11836259     0.01400
N1119       N  0.73947044  0.20879864  0.11939677    -0.25500
N1120       N  0.81877902  0.24666890  0.20615660    -0.26000
N1121       N  0.71538982  0.22495747  0.11935896     0.01000
H1122       H  0.75524461  0.17379535  0.08059393     0.06900
H1123       H  0.66976297  0.27361765  0.07808843     0.06900
N1124       N  0.78296642  0.32616059  0.11772095    -0.26000
N1125       N  0.70184028  0.29054838  0.20485235    -0.25700
N1126       N  0.80341375  0.22109599  0.11957472     0.01400
C1127       C  0.81171322  0.34206770  0.25333610     0.42800
C1128       C  0.73690853  0.19138938  0.23761686    -0.06900
N1129       N  0.70329911  0.28958778  0.11763878    -0.25700
H1130       H  0.66671526  0.27522100  0.24303572     0.06900
N1131       N  0.82456139  0.31951702  0.23332235    -0.46900
H1132       H  0.75350429  0.17562930  0.24599221     0.06900
C1133       C  0.71060593  0.19575590  0.06972850     0.42600
C1134       C  0.83792634  0.24555849  0.23608041    -0.06400
Co1135     Co  0.77121293  0.21484931  0.16312632     0.73800
N1136       N  0.69551144  0.21877303  0.23476143    -0.46600
C1137       C  0.81253610  0.33757604  0.06731070     0.42900
N1138       N  0.81021707  0.20259124  0.09020643    -0.46600
Co1139     Co  0.70805053  0.25760666  0.16196127     0.73900
C1140       C  0.68546041  0.29039469  0.08620326    -0.06900
C1141       C  0.78319934  0.34699354  0.23537534    -0.06500
N1142       N  0.81924835  0.24549652  0.11890793    -0.26000
N1143       N  0.70987172  0.33363796  0.23331296    -0.46800
H1144       H  0.76767500  0.35972609  0.07738194     0.06900
C1145       C  0.73858460  0.18982119  0.08856057    -0.06900
Cl1146     Cl  0.76076104  0.26809125  0.16228936    -0.49900
C1147       C  0.70821381  0.19694325  0.25560174     0.42600
H1148       H  0.85327546  0.26094640  0.07894417     0.06900
N1149       N  0.69753410  0.21786435  0.09016301    -0.46600
C1150       C  0.63875695  0.13204930  0.99900808    -0.06100
C1151       C  0.61581357  0.13581421  0.02687877    -0.17200
C1152       C  0.59316323  0.11509734  0.03049765     0.11100
C1153       C  0.59222557  0.09065131  0.00424324    -0.06000
C1154       C  0.61497248  0.08691083  0.30959184    -0.17200
C1155       C  0.63854740  0.10664191  0.30754005     0.11100
S1156       S  0.56647087  0.12078304  0.06973141    -0.32200
S1157       S  0.66838748  0.09691036  0.27442218    -0.32200
H1158       H  0.69053301  0.10735177  0.29953402     0.29200
H1159       H  0.56061507  0.09068813  0.07629048     0.29100
H1160       H  0.61572507  0.15487869  0.04649503     0.19700
H1161       H  0.61471499  0.06792952  0.28981636     0.19700
C1162       C  0.94023258  0.09972927  0.99315188    -0.06100
C1163       C  0.94133007  0.12184711  0.02249687    -0.17200
C1164       C  0.92236006  0.14623861  0.02206741     0.11100
C1165       C  0.89973809  0.14767164  0.99350842    -0.06000
C1166       C  0.89910180  0.12563113  0.29706219    -0.17200
C1167       C  0.91971280  0.10261551  0.29565970     0.11100
S1168       S  0.92998926  0.17561769  0.05688826    -0.32200
S1169       S  0.91915497  0.07808298  0.25326558    -0.32200
H1170       H  0.94933977  0.07197005  0.25274641     0.29200
H1171       H  0.92171845  0.19853210  0.03125115     0.29100
H1172       H  0.95785496  0.12057324  0.04525895     0.19700
H1173       H  0.88250231  0.12629568  0.27440787     0.19700
C1174       C  0.58452542  0.43791639  0.33651816    -0.06100
C1175       C  0.58236702  0.41457107  0.03030810    -0.17200
C1176       C  0.60145935  0.39036667  0.02818388     0.11100
C1177       C  0.62505968  0.39038498  0.00039508    -0.06000
C1178       C  0.62740108  0.41412225  0.30702743    -0.17200
C1179       C  0.60690560  0.43716384  0.30719133     0.11100
S1180       S  0.59276935  0.35929855  0.05951329    -0.32200
S1181       S  0.60997401  0.46442208  0.26842999    -0.32200
H1182       H  0.57976656  0.46962494  0.26500349     0.29200
H1183       H  0.60145435  0.33770156  0.03153472     0.29100
H1184       H  0.56472916  0.41456767  0.05212686     0.19700
H1185       H  0.64505691  0.41452562  0.28527757     0.19700
C1186       C  0.93157801  0.44404906  0.33073275    -0.06100
C1187       C  0.92713471  0.42654365  0.29675040    -0.17200
C1188       C  0.90713610  0.40306186  0.29694104     0.11100
C1189       C  0.88684940  0.40008949  0.99567283    -0.06000
C1190       C  0.89082272  0.41842500  0.02926945    -0.17200
C1191       C  0.91392806  0.43873556  0.03138213     0.11100
S1192       S  0.91177144  0.37577509  0.25807015    -0.32200
S1193       S  0.91983144  0.45685178  0.07853045    -0.32200
H1194       H  0.95018710  0.46065099  0.07363993     0.29200
H1195       H  0.90318801  0.35170898  0.28181316     0.29100
H1196       H  0.94102561  0.42974349  0.27081260     0.19700
H1197       H  0.87614172  0.41686883  0.05460839     0.19700
C1198       C  0.86114812  0.37917085  0.32800362     0.03200
C1199       C  0.84653581  0.37275849  0.62555316    -0.13000
C1200       C  0.82250817  0.35345710  0.62485095     0.00700
C1201       C  0.81082002  0.34275528  0.66056772    -0.11500
C1202       C  0.82442658  0.34938296  0.36320613     0.03200
C1203       C  0.85006374  0.36644737  0.36334248    -0.10900
H1204       H  0.85361377  0.38268222  0.59793973     0.08800
H1205       H  0.79197110  0.32822666  0.66020564     0.06300
H1206       H  0.86099287  0.37002428  0.39130583     0.06100
C1207       C  0.64723659  0.36608196  0.33146599     0.03200
C1208       C  0.65624933  0.35444273  0.62770320    -0.13000
C1209       C  0.67652801  0.33118784  0.62543759     0.00700
C1210       C  0.68727216  0.31870472  0.66035788    -0.11500
C1211       C  0.67921318  0.33060314  0.36407078     0.03200
C1212       C  0.65999319  0.35477310  0.36611481    -0.10900
H1213       H  0.64735271  0.36325755  0.60052053     0.08800
H1214       H  0.70276941  0.30056501  0.65864991     0.06300
H1215       H  0.65467458  0.36446939  0.39479863     0.06100
C1216       C  0.87664612  0.17139066  0.32731970     0.03200
C1217       C  0.86659243  0.18389397  0.62495635    -0.13000
C1218       C  0.84500192  0.20605793  0.62547430     0.00700
C1219       C  0.83423601  0.21689435  0.32852456    -0.11500
C1220       C  0.84348494  0.20438122  0.36420664     0.03200
C1221       C  0.86368963  0.18100134  0.36340189    -0.10900
H1222       H  0.87553939  0.17654811  0.59664179     0.08800
H1223       H  0.81799439  0.23438599  0.32903980     0.06300
H1224       H  0.86956321  0.17061561  0.39108689     0.06100
N1225       N  0.50918617  0.47275080  0.66928476    -0.36600
N1226       N  0.55656403  0.01589020  0.67190556    -0.57100
N1227       N  0.51403174  0.06341866  0.66916611    -0.36600
N1228       N  0.96661428  0.02021991  0.66311026    -0.57100
C1229       C  0.53276704  0.45497700  0.66332665     0.27000
C1230       C  0.98501953  0.45684698  0.66018266     0.27000
C1231       C  0.53922532  0.07835279  0.66184497     0.27000
C1232       C  0.99167333  0.08093910  0.65769145     0.27000
C1233       C  0.57176786  0.49112041  0.68040439     0.35600
C1234       C  0.57428789  0.03892011  0.68026899     0.35600
C1235       C  0.94780240  0.49724533  0.66704747     0.35600
C1236       C  0.95053783  0.04530183  0.66687512     0.35600
C1237       C  0.52350874  0.42747299  0.65041374    -0.21900
C1238       C  0.99355086  0.42840652  0.64927420    -0.21900
C1239       C  0.53274826  0.10564408  0.64561600    -0.21900
C1240       C  0.00278588  0.10732188  0.64315835    -0.21900
C1241       C  0.59919741  0.99845283  0.69449311    -0.22900
C1242       C  0.60079473  0.02876428  0.69446179    -0.22900
C1243       C  0.91953758  0.00791419  0.67235050    -0.22900
C1244       C  0.92134458  0.03821254  0.67290039    -0.22900
C1245       C  0.56227169  0.46211603  0.67176713    -0.18300
C1246       C  0.95552683  0.46680772  0.66383724    -0.18300
C1247       C  0.96143795  0.07445298  0.66177335    -0.18300
C1248       C  0.56776068  0.06873759  0.67169867    -0.18300
H1249       H  0.53684470  0.40831084  0.64347616     0.14600
H1250       H  0.98001363  0.40971370  0.64177578     0.14600
H1251       H  0.54801613  0.12273588  0.63682814     0.14600
H1252       H  0.99055327  0.12591844  0.63191129     0.14600
H1253       H  0.61649516  0.48345533  0.70302691     0.12900
H1254       H  0.61954096  0.04179730  0.70308694     0.12900
H1255       H  0.89954525  0.49531349  0.67518325     0.12900
H1256       H  0.90307529  0.05327792  0.67636012     0.12900
H1257       H  0.50934348  0.49331216  0.68299502     0.26200
H1258       H  0.51199757  0.04397200  0.68517985     0.26200
C1259       C  0.66287103  0.15432867  0.33098964     0.03200
C1260       C  0.67292478  0.16628512  0.62803361    -0.13000
C1261       C  0.69705144  0.18551247  0.62703476     0.00700
C1262       C  0.71040229  0.19395006  0.32924705    -0.11500
C1263       C  0.69941208  0.18374447  0.36567414     0.03200
C1264       C  0.67593866  0.16385677  0.36645328    -0.10900
H1265       H  0.66238611  0.16019838  0.60052412     0.08800
H1266       H  0.72858369  0.20932347  0.32865934     0.06300
H1267       H  0.66803301  0.15562428  0.39478483     0.06100
C1268       C  0.83275821  0.21700620  0.58804786     0.42500
N1269       N  0.80300372  0.22224090  0.53975756     0.01400
C1270       C  0.78426360  0.34401331  0.41932268    -0.06500
H1271       H  0.76650701  0.36297932  0.57656579     0.06900
C1272       C  0.68247716  0.29206906  0.56838660    -0.06800
Co1273     Co  0.81350482  0.27858167  0.49546843     0.74200
N1274       N  0.78206421  0.32745124  0.53851414    -0.25400
Co1275     Co  0.75033624  0.32132459  0.49481035     0.74100
C1276       C  0.68747232  0.32087997  0.58658253     0.42600
N1277       N  0.71425750  0.22581976  0.53927294     0.01000
N1278       N  0.71769144  0.31494881  0.53796992     0.01100
N1279       N  0.82548918  0.31634269  0.42214876    -0.46900
H1280       H  0.85392702  0.26231901  0.57658169     0.06900
N1281       N  0.80633338  0.31155770  0.53826159     0.01400
N1282       N  0.71911100  0.31401770  0.45130851     0.01100
C1283       C  0.69179702  0.31862830  0.40057496     0.42700
N1284       N  0.73854730  0.20996894  0.54005994    -0.25500
C1285       C  0.83771091  0.24413070  0.42089411    -0.06400
N1286       N  0.81056948  0.20392982  0.56850861    -0.46600
N1287       N  0.71280146  0.33207306  0.42176295    -0.46800
C1288       C  0.83187780  0.21554592  0.40238417     0.42500
N1289       N  0.80713671  0.31011485  0.45168694     0.01400
N1290       N  0.73949423  0.20879429  0.45273812    -0.25500
N1291       N  0.81881244  0.24666699  0.53948093    -0.26000
N1292       N  0.71541396  0.22495386  0.45270462     0.01000
H1293       H  0.75526463  0.17379185  0.41393089     0.06900
H1294       H  0.66977926  0.27361379  0.41144152     0.06900
N1295       N  0.78298538  0.32615504  0.45105055    -0.26000
N1296       N  0.70186973  0.29054676  0.53819770    -0.25700
N1297       N  0.80343813  0.22109184  0.45289945     0.01400
C1298       C  0.81173610  0.34205002  0.58668123     0.42800
C1299       C  0.73694385  0.19138355  0.57095568    -0.06900
N1300       N  0.70332015  0.28958406  0.45098433    -0.25700
H1301       H  0.66673927  0.27522595  0.57637644     0.06900
N1302       N  0.82458739  0.31950566  0.56665777    -0.46900
H1303       H  0.75353912  0.17562082  0.57932456     0.06900
C1304       C  0.71062587  0.19575486  0.40307239     0.42600
C1305       C  0.83795652  0.24556173  0.56940943    -0.06400
Co1306     Co  0.77124213  0.21484571  0.49646021     0.73800
N1307       N  0.69554627  0.21876730  0.56810729    -0.46600
C1308       C  0.81253996  0.33755674  0.40061997     0.42900
N1309       N  0.81023703  0.20258826  0.42352725    -0.46600
Co1310     Co  0.70807809  0.25760338  0.49530742     0.73900
C1311       C  0.68547714  0.29039112  0.41955313    -0.06900
C1312       C  0.78322488  0.34698130  0.56871601    -0.06500
N1313       N  0.81927210  0.24549268  0.45222949    -0.26000
N1314       N  0.70989328  0.33364377  0.56664265    -0.46800
H1315       H  0.76768305  0.35971123  0.41070520     0.06900
C1316       C  0.73860531  0.18981754  0.42190126    -0.06900
Cl1317     Cl  0.76078801  0.26808783  0.49562447    -0.49900
C1318       C  0.70824910  0.19693522  0.58894281     0.42600
H1319       H  0.85329182  0.26094427  0.41225535     0.06900
N1320       N  0.69755602  0.21786256  0.42351056    -0.46600
C1321       C  0.63877391  0.13204456  0.33236979    -0.06100
C1322       C  0.61583629  0.13580696  0.36024975    -0.17200
C1323       C  0.59318652  0.11509020  0.36387290     0.11100
C1324       C  0.59224389  0.09064688  0.33761461    -0.06000
C1325       C  0.61499814  0.08689151  0.64292711    -0.17200
C1326       C  0.63857358  0.10662202  0.64087418     0.11100
S1327       S  0.56650011  0.12077356  0.40311462    -0.32200
S1328       S  0.66842323  0.09687941  0.60777843    -0.32200
H1329       H  0.69056135  0.10733117  0.63289459     0.29200
H1330       H  0.56063809  0.09067876  0.40966426     0.29100
H1331       H  0.61575095  0.15487047  0.37986797     0.19700
H1332       H  0.61474595  0.06790292  0.62316405     0.19700
C1333       C  0.94025429  0.09974777  0.32643601    -0.06100
C1334       C  0.94135096  0.12186422  0.35578260    -0.17200
C1335       C  0.92238280  0.14625675  0.35535095     0.11100
C1336       C  0.89975971  0.14768901  0.32679340    -0.06000
C1337       C  0.89909593  0.12562653  0.63043353    -0.17200
C1338       C  0.91970179  0.10260615  0.62903604     0.11100
S1339       S  0.93001749  0.17563984  0.39016332    -0.32200
S1340       S  0.91913698  0.07806695  0.58664888    -0.32200
H1341       H  0.94932157  0.07195291  0.58612312     0.29200
H1342       H  0.92173819  0.19855138  0.36452662     0.29100
H1343       H  0.95787409  0.12058871  0.37854709     0.19700
H1344       H  0.88249855  0.12629384  0.60777689     0.19700
C1345       C  0.58452808  0.43791191  0.66988252    -0.06100
C1346       C  0.58237224  0.41456091  0.36362337    -0.17200
C1347       C  0.60146884  0.39035996  0.36150893     0.11100
C1348       C  0.62507900  0.39038475  0.33373681    -0.06000
C1349       C  0.62740449  0.41413208  0.64037076    -0.17200
C1350       C  0.60690318  0.43716869  0.64054782     0.11100
S1351       S  0.59277583  0.35928907  0.39283166    -0.32200
S1352       S  0.60995434  0.46443150  0.60179007    -0.32200
H1353       H  0.57974428  0.46962487  0.59837551     0.29200
H1354       H  0.60147159  0.33769401  0.36485641     0.29100
H1355       H  0.56472651  0.41455290  0.38543052     0.19700
H1356       H  0.64505846  0.41454403  0.61861796     0.19700
C1357       C  0.93158111  0.44405603  0.66406896    -0.06100
C1358       C  0.92714000  0.42654609  0.63009028    -0.17200
C1359       C  0.90714784  0.40305872  0.63028744     0.11100
C1360       C  0.88685766  0.40006569  0.32899878    -0.06000
C1361       C  0.89083110  0.41839336  0.36260306    -0.17200
C1362       C  0.91393761  0.43870117  0.36472575     0.11100
S1363       S  0.91179353  0.37576626  0.59142585    -0.32200
S1364       S  0.91983827  0.45680873  0.41188098    -0.32200
H1365       H  0.95019265  0.46061778  0.40699058     0.29200
H1366       H  0.90321500  0.35170224  0.61517583     0.29100
H1367       H  0.94103025  0.42974515  0.60415178     0.19700
H1368       H  0.87614839  0.41683401  0.38793990     0.19700
C1369       C  0.86116409  0.37916084  0.66135350     0.03200
C1370       C  0.84651252  0.37278505  0.95888860    -0.13000
C1371       C  0.82248975  0.35347770  0.95819012     0.00700
C1372       C  0.81080618  0.34277404  0.99390780    -0.11500
C1373       C  0.82443963  0.34937547  0.69655670     0.03200
C1374       C  0.85007582  0.36644243  0.69669392    -0.10900
H1375       H  0.85358773  0.38270846  0.93127373     0.08800
H1376       H  0.79196137  0.32824009  0.99354768     0.06300
H1377       H  0.86100069  0.37002568  0.72465913     0.06100
C1378       C  0.64725353  0.36609205  0.66479438     0.03200
C1379       C  0.65621319  0.35443093  0.96102855    -0.13000
C1380       C  0.67650055  0.33118353  0.95876147     0.00700
C1381       C  0.68725132  0.31870555  0.99368146    -0.11500
C1382       C  0.67922463  0.33060893  0.69739782     0.03200
C1383       C  0.66000650  0.35477972  0.69944318    -0.10900
H1384       H  0.64731237  0.36324150  0.93384554     0.08800
H1385       H  0.70275434  0.30057089  0.99197257     0.06300
H1386       H  0.65468433  0.36447254  0.72812848     0.06100
C1387       C  0.87664963  0.17139422  0.66067985     0.03200
C1388       C  0.86656989  0.18387686  0.95830119    -0.13000
C1389       C  0.84498056  0.20604250  0.95882080     0.00700
C1390       C  0.83425359  0.21691135  0.66186612    -0.11500
C1391       C  0.84348998  0.20439508  0.69755317     0.03200
C1392       C  0.86368720  0.18100860  0.69675648    -0.10900
H1393       H  0.87551525  0.17653023  0.92998613     0.08800
H1394       H  0.81801590  0.23440673  0.66237417     0.06300
H1395       H  0.86955025  0.17062023  0.72444393     0.06100
N1396       N  0.50917191  0.47276651  0.00259042    -0.36600
N1397       N  0.55654694  0.01589081  0.00520632    -0.57100
N1398       N  0.51400164  0.06341107  0.00248154    -0.36600
N1399       N  0.96662124  0.02021416  0.99644232    -0.57100
C1400       C  0.53275240  0.45498804  0.99663325     0.27000
C1401       C  0.98500757  0.45686089  0.99349298     0.27000
C1402       C  0.53919061  0.07835157  0.99515849     0.27000
C1403       C  0.99166641  0.08093659  0.99102304     0.27000
C1404       C  0.57175397  0.49113439  0.01369504     0.35600
C1405       C  0.57426724  0.03892517  0.01356414     0.35600
C1406       C  0.94779730  0.49726448  0.00036267     0.35600
C1407       C  0.95053881  0.04529265  0.00020920     0.35600
C1408       C  0.52349332  0.42748187  0.98373297    -0.21900
C1409       C  0.99353453  0.42842013  0.98258223    -0.21900
C1410       C  0.53270483  0.10564096  0.97892945    -0.21900
C1411       C  0.00277587  0.10731741  0.97648010    -0.21900
C1412       C  0.59919204  0.99846213  0.02776588    -0.22900
C1413       C  0.60078121  0.02877420  0.02773956    -0.22900
C1414       C  0.91954681  0.00789753  0.00567710    -0.22900
C1415       C  0.92134713  0.03819627  0.00623245    -0.22900
C1416       C  0.56225713  0.46212908  0.00506832    -0.18300
C1417       C  0.95551652  0.46682598  0.99715097    -0.18300
C1418       C  0.96143230  0.07444683  0.99510904    -0.18300
C1419       C  0.56772988  0.06874342  0.00500582    -0.18300
H1420       H  0.53682924  0.40831773  0.97680315     0.14600
H1421       H  0.97999451  0.40972941  0.97508413     0.14600
H1422       H  0.54796778  0.12273698  0.97014003     0.14600
H1423       H  0.99054111  0.12591085  0.96522830     0.14600
H1424       H  0.61648180  0.48347292  0.03631659     0.12900
H1425       H  0.61952680  0.04181070  0.03635748     0.12900
H1426       H  0.89953921  0.49534185  0.00848954     0.12900
H1427       H  0.90307434  0.05325741  0.00969304     0.12900
H1428       H  0.50933003  0.49331795  0.01628704     0.26200
H1429       H  0.51197477  0.04396104  0.01849913     0.26200
C1430       C  0.66289239  0.15431455  0.66431182     0.03200
C1431       C  0.67288916  0.16630084  0.96135704    -0.13000
C1432       C  0.69702244  0.18551883  0.96035402     0.00700
C1433       C  0.71042321  0.19393668  0.66258768    -0.11500
C1434       C  0.69942254  0.18373368  0.69901003     0.03200
C1435       C  0.67594928  0.16384640  0.69978045    -0.10900
H1436       H  0.66234696  0.16021779  0.93384916     0.08800
H1437       H  0.72860308  0.20931218  0.66200792     0.06300
H1438       H  0.66803540  0.15561698  0.72810950     0.06100
C1439       C  0.83273894  0.21699674  0.92139726     0.42500
N1440       N  0.80298773  0.22223960  0.87310617     0.01400
C1441       C  0.78426868  0.34401213  0.75266769    -0.06500
H1442       H  0.76649252  0.36299158  0.90989538     0.06900
C1443       C  0.68245601  0.29206983  0.90170464    -0.06800
Co1444     Co  0.81349753  0.27858288  0.82882600     0.74200
N1445       N  0.78205039  0.32745280  0.87186226    -0.25400
Co1446     Co  0.75032948  0.32132555  0.82815076     0.74100
C1447       C  0.68744881  0.32087960  0.91990552     0.42600
N1448       N  0.71424237  0.22582075  0.87259647     0.01000
N1449       N  0.71767762  0.31494886  0.87130240     0.01100
N1450       N  0.82549430  0.31634327  0.75550914    -0.46900
H1451       H  0.85390937  0.26231131  0.90994661     0.06900
N1452       N  0.80631937  0.31155894  0.87161759     0.01400
N1453       N  0.71911128  0.31401905  0.78464085     0.01100
C1454       C  0.69180517  0.31863109  0.73390088     0.42700
N1455       N  0.73853124  0.20996867  0.87338956    -0.25500
C1456       C  0.83771067  0.24413935  0.75424955    -0.06400
N1457       N  0.81055114  0.20392376  0.90185263    -0.46600
N1458       N  0.71280626  0.33207533  0.75509492    -0.46800
C1459       C  0.83187465  0.21555949  0.73572752     0.42500
N1460       N  0.80713771  0.31011731  0.78504356     0.01400
N1461       N  0.73949309  0.20879677  0.78607172    -0.25500
N1462       N  0.81879663  0.24666567  0.87283790    -0.26000
N1463       N  0.71541208  0.22495483  0.78603233     0.01000
H1464       H  0.75526578  0.17378684  0.74727979     0.06900
H1465       H  0.66978481  0.27361690  0.74475919     0.06900
N1466       N  0.78298600  0.32615663  0.78439868    -0.26000
N1467       N  0.70185467  0.29054764  0.87152267    -0.25700
N1468       N  0.80343629  0.22109601  0.78624686     0.01400
C1469       C  0.81172037  0.34206298  0.92002393     0.42800
C1470       C  0.73692035  0.19138067  0.90428164    -0.06900
N1471       N  0.70332032  0.28958561  0.78431083    -0.25700
H1472       H  0.66671610  0.27522692  0.90968777     0.06900
N1473       N  0.82457241  0.31951358  0.90001150    -0.46900
H1474       H  0.75351337  0.17561673  0.91265525     0.06900
C1475       C  0.71062675  0.19574488  0.73641184     0.42600
C1476       C  0.83793811  0.24555588  0.90276892    -0.06400
Co1477     Co  0.77123374  0.21484726  0.82980004     0.73800
N1478       N  0.69552514  0.21876735  0.90142274    -0.46600
C1479       C  0.81254832  0.33755516  0.73397280     0.42900
N1480       N  0.81023444  0.20259797  0.75686787    -0.46600
Co1481     Co  0.70807033  0.25760482  0.82863269     0.73900
C1482       C  0.68548179  0.29039366  0.75287539    -0.06900
C1483       C  0.78320958  0.34698964  0.90205598    -0.06500
N1484       N  0.81927148  0.24549628  0.78558522    -0.26000
N1485       N  0.70987496  0.33364261  0.89997478    -0.46800
H1486       H  0.76768848  0.35970793  0.74404234     0.06900
C1487       C  0.73860640  0.18981434  0.75524189    -0.06900
Cl1488     Cl  0.76078049  0.26808917  0.82896567    -0.49900
C1489       C  0.70822231  0.19693277  0.92225921     0.42600
H1490       H  0.85329177  0.26095434  0.74561589     0.06900
N1491       N  0.69755489  0.21785629  0.75684053    -0.46600
C1492       C  0.63879265  0.13203366  0.66568709    -0.06100
C1493       C  0.61584671  0.13580697  0.69355171    -0.17200
C1494       C  0.59319659  0.11509143  0.69717781     0.11100
C1495       C  0.59226163  0.09063842  0.67093580    -0.06000
C1496       C  0.61495843  0.08691436  0.97622705    -0.17200
C1497       C  0.63853411  0.10664495  0.97418112     0.11100
S1498       S  0.56649911  0.12078868  0.73640240    -0.32200
S1499       S  0.66838106  0.09690885  0.94107733    -0.32200
H1500       H  0.69052106  0.10734756  0.96620017     0.29200
H1501       H  0.56064437  0.09069547  0.74297799     0.29100
H1502       H  0.61575598  0.15487756  0.71315734     0.19700
H1503       H  0.61470486  0.06793118  0.95645458     0.19700
C1504       C  0.94024289  0.09973799  0.65981244    -0.06100
C1505       C  0.94133932  0.12185315  0.68916049    -0.17200
C1506       C  0.92237363  0.14624743  0.68872789     0.11100
C1507       C  0.89975575  0.14768533  0.66016344    -0.06000
C1508       C  0.89907669  0.12561034  0.96378253    -0.17200
C1509       C  0.91968558  0.10259273  0.96238185     0.11100
S1510       S  0.93000389  0.17562404  0.72355169    -0.32200
S1511       S  0.91911728  0.07805209  0.91999665    -0.32200
H1512       H  0.94930293  0.07194360  0.91946202     0.29200
H1513       H  0.92173952  0.19854025  0.69791363     0.29100
H1514       H  0.95786056  0.12057517  0.71192725     0.19700
H1515       H  0.88247612  0.12627428  0.94113033     0.19700
C1516       C  0.58451172  0.43792232  0.00319545    -0.06100
C1517       C  0.58237905  0.41454712  0.69697366    -0.17200
C1518       C  0.60147785  0.39034871  0.69484048     0.11100
C1519       C  0.62508911  0.39038791  0.66707010    -0.06000
C1520       C  0.62737181  0.41411811  0.97367666    -0.17200
C1521       C  0.60687728  0.43716088  0.97384898     0.11100
S1522       S  0.59278447  0.35925994  0.72613138    -0.32200
S1523       S  0.60992507  0.46440793  0.93507087    -0.32200
H1524       H  0.57971548  0.46960834  0.93166741     0.29200
H1525       H  0.60148663  0.33768050  0.69813749     0.29100
H1526       H  0.56473423  0.41452921  0.71878208     0.19700
H1527       H  0.64501869  0.41451753  0.95191315     0.19700
C1528       C  0.93156700  0.44407784  0.99738590    -0.06100
C1529       C  0.92712133  0.42656662  0.96340956    -0.17200
C1530       C  0.90712598  0.40308183  0.96361188     0.11100
C1531       C  0.88687041  0.40006091  0.66234628    -0.06000
C1532       C  0.89083979  0.41839443  0.69594605    -0.17200
C1533       C  0.91394127  0.43870919  0.69806303     0.11100
S1534       S  0.91176719  0.37578460  0.92475518    -0.32200
S1535       S  0.91983626  0.45682694  0.74521263    -0.32200
H1536       H  0.95019006  0.46064162  0.74032406     0.29200
H1537       H  0.90318714  0.35172383  0.94851021     0.29100
H1538       H  0.94101052  0.42976224  0.93746924     0.19700
H1539       H  0.87615743  0.41683510  0.72128324     0.19700
C1540       C  0.86115001  0.87916960  0.99468687     0.03200
C1541       C  0.84651252  0.87278473  0.29221473    -0.13000
C1542       C  0.82248496  0.85348370  0.29151234     0.00700
C1543       C  0.81079528  0.84278248  0.32722829    -0.11500
C1544       C  0.82442272  0.84938868  0.02988953     0.03200
C1545       C  0.85006210  0.86645048  0.03002651    -0.10900
H1546       H  0.85359588  0.88270402  0.26460043     0.08800
H1547       H  0.79194811  0.82825140  0.32686483     0.06300
H1548       H  0.86099040  0.87002810  0.05799045     0.06100
C1549       C  0.64722561  0.86608568  0.99813202     0.03200
C1550       C  0.65622631  0.85443549  0.29436594    -0.13000
C1551       C  0.67650453  0.83117839  0.29210772     0.00700
C1552       C  0.68724537  0.81869973  0.32703330    -0.11500
C1553       C  0.67919737  0.83060343  0.03074346     0.03200
C1554       C  0.65997575  0.85477291  0.03278414    -0.10900
H1555       H  0.64733361  0.86324851  0.26717976     0.08800
H1556       H  0.70274287  0.80055973  0.32533211     0.06300
H1557       H  0.65465214  0.86446715  0.06146781     0.06100
C1558       C  0.87666526  0.67141782  0.99400930     0.03200
C1559       C  0.86658077  0.68389130  0.29162961    -0.13000
C1560       C  0.84499482  0.70605938  0.29214534     0.00700
C1561       C  0.83425354  0.71691851  0.99520270    -0.11500
C1562       C  0.84349898  0.70440633  0.03088717     0.03200
C1563       C  0.86370457  0.68102801  0.03008805    -0.10900
H1564       H  0.87552470  0.67653984  0.26331601     0.08800
H1565       H  0.81800942  0.73440778  0.99571375     0.06300
H1566       H  0.86957438  0.67064198  0.05777458     0.06100
N1567       N  0.50917676  0.97276142  0.33591051    -0.36600
N1568       N  0.55656902  0.51587750  0.33855165    -0.57100
N1569       N  0.51403679  0.56340509  0.33583310    -0.36600
N1570       N  0.96661344  0.52022346  0.32978718    -0.57100
C1571       C  0.53276176  0.95499553  0.32994596     0.27000
C1572       C  0.98501236  0.95683856  0.32684838     0.27000
C1573       C  0.53923007  0.57834375  0.32852482     0.27000
C1574       C  0.99166128  0.58094777  0.32437136     0.27000
C1575       C  0.57175326  0.99114511  0.34703336     0.35600
C1576       C  0.57429354  0.53890540  0.34692441     0.35600
C1577       C  0.94780052  0.99724611  0.33368547     0.35600
C1578       C  0.95053298  0.54530273  0.33355745     0.35600
C1579       C  0.52350984  0.92749110  0.31702542    -0.21900
C1580       C  0.99353922  0.92839431  0.31594941    -0.21900
C1581       C  0.53275334  0.60563861  0.31230685    -0.21900
C1582       C  0.00276986  0.60733150  0.30983733    -0.21900
C1583       C  0.59920510  0.49843435  0.36112230    -0.22900
C1584       C  0.60080205  0.52874562  0.36110615    -0.22900
C1585       C  0.91953936  0.50790958  0.33903006    -0.22900
C1586       C  0.92134155  0.53820809  0.33958633    -0.22900
C1587       C  0.56226440  0.96213854  0.33839276    -0.18300
C1588       C  0.95552099  0.96680656  0.33049063    -0.18300
C1589       C  0.96142737  0.57445609  0.32845543    -0.18300
C1590       C  0.56776504  0.56872626  0.33837559    -0.18300
H1591       H  0.53685058  0.90833294  0.31008309     0.14600
H1592       H  0.97999910  0.90970352  0.30845235     0.14600
H1593       H  0.54802114  0.62273375  0.30353020     0.14600
H1594       H  0.99053465  0.62592636  0.29859025     0.14600
H1595       H  0.61647962  0.98349022  0.36966488     0.12900
H1596       H  0.61954861  0.54177612  0.36973632     0.12900
H1597       H  0.89954002  0.99532330  0.34179038     0.12900
H1598       H  0.90306993  0.55327012  0.34305164     0.12900
H1599       H  0.50932949  0.99332471  0.34963207     0.26200
H1600       H  0.51200219  0.54395667  0.35183771     0.26200
C1601       C  0.66289463  0.65430623  0.99765370     0.03200
C1602       C  0.67292112  0.66627384  0.29470599    -0.13000
C1603       C  0.69704899  0.68549913  0.29369290     0.00700
C1604       C  0.71042034  0.69393427  0.99591215    -0.11500
C1605       C  0.69942858  0.68372998  0.03233881     0.03200
C1606       C  0.67595835  0.66383848  0.03311792    -0.10900
H1607       H  0.66237925  0.66018131  0.26720106     0.08800
H1608       H  0.72859912  0.70931098  0.99532501     0.06300
H1609       H  0.66805147  0.65560748  0.06144982     0.06100
C1610       C  0.83275371  0.71700803  0.25471940     0.42500
N1611       N  0.80299918  0.72224447  0.20643123     0.01400
C1612       C  0.78425307  0.84401352  0.08599744    -0.06500
H1613       H  0.76648561  0.86299207  0.24322186     0.06900
C1614       C  0.68246485  0.79205462  0.23505756    -0.06800
Co1615     Co  0.81349691  0.77858958  0.16215146     0.74200
N1616       N  0.78204578  0.82745466  0.20518867    -0.25400
Co1617     Co  0.75032185  0.82132172  0.16148274     0.74100
C1618       C  0.68745588  0.82086653  0.25325565     0.42600
N1619       N  0.71425361  0.72580700  0.20593311     0.01000
N1620       N  0.71767570  0.81494016  0.20464099     0.01100
N1621       N  0.82548466  0.81635330  0.08883664    -0.46900
H1622       H  0.85391424  0.76232692  0.24326796     0.06900
N1623       N  0.80631725  0.81156483  0.20494140     0.01400
N1624       N  0.71909961  0.81401252  0.11797782     0.01100
C1625       C  0.69177979  0.81862777  0.06724973     0.42700
N1626       N  0.73854526  0.70995921  0.20672135    -0.25500
C1627       C  0.83771526  0.74414879  0.08757997    -0.06400
N1628       N  0.81056784  0.70393019  0.23517668    -0.46600
N1629       N  0.71278551  0.83207100  0.08843740    -0.46800
C1630       C  0.83188462  0.71556706  0.06906142     0.42500
N1631       N  0.80712917  0.81012204  0.11837003     0.01400
N1632       N  0.73950144  0.70879265  0.11940169    -0.25500
N1633       N  0.81880320  0.74667385  0.20616214    -0.26000
N1634       N  0.71541810  0.72494775  0.11936591     0.01000
H1635       H  0.75527988  0.67379084  0.08059960     0.06900
H1636       H  0.66976984  0.77360812  0.07810845     0.06900
N1637       N  0.78297424  0.82615646  0.11772660    -0.26000
N1638       N  0.70185739  0.79053557  0.20486737    -0.25700
N1639       N  0.80344255  0.72110157  0.11957519     0.01400
C1640       C  0.81171794  0.84207169  0.25334408     0.42800
C1641       C  0.73693960  0.69136791  0.23761065    -0.06900
N1642       N  0.70331166  0.78957710  0.11765069    -0.25700
H1643       H  0.66672891  0.77520918  0.24304648     0.06900
N1644       N  0.82457180  0.81952368  0.23333120    -0.46900
H1645       H  0.75353643  0.67560688  0.24598021     0.06900
C1646       C  0.71063794  0.69574543  0.06973590     0.42600
C1647       C  0.83794622  0.74556811  0.23609127    -0.06400
Co1648     Co  0.77124363  0.71484648  0.16312874     0.73800
N1649       N  0.69553960  0.71874704  0.23476066    -0.46600
C1650       C  0.81253416  0.83756372  0.06730315     0.42900
N1651       N  0.81024493  0.70260305  0.09019910    -0.46600
Co1652     Co  0.70807296  0.75759419  0.16197182     0.73900
C1653       C  0.68546630  0.79038625  0.08622156    -0.06900
C1654       C  0.78320473  0.84699289  0.23538052    -0.06500
N1655       N  0.81927407  0.74550416  0.11891282    -0.26000
N1656       N  0.70987511  0.83363328  0.23331518    -0.46800
H1657       H  0.76767043  0.85970738  0.07737472     0.06900
C1658       C  0.73861781  0.68981474  0.08856619    -0.06900
Cl1659     Cl  0.76078144  0.76808692  0.16229698    -0.49900
C1660       C  0.70824129  0.69691215  0.25559239     0.42600
H1661       H  0.85329445  0.76096582  0.07894669     0.06900
N1662       N  0.69756273  0.71785163  0.09017109    -0.46600
C1663       C  0.63879769  0.63202223  0.99903312    -0.06100
C1664       C  0.61585703  0.63578726  0.02690795    -0.17200
C1665       C  0.59320317  0.61507450  0.03052325     0.11100
C1666       C  0.59226132  0.59063203  0.00426373    -0.06000
C1667       C  0.61499811  0.58688853  0.30960472    -0.17200
C1668       C  0.63857352  0.60661866  0.30755514     0.11100
S1669       S  0.56650795  0.62076411  0.06975273    -0.32200
S1670       S  0.66841959  0.59687897  0.27445194    -0.32200
H1671       H  0.69055968  0.60732288  0.29957081     0.29200
H1672       H  0.56063733  0.59067087  0.07630133     0.29100
H1673       H  0.61577080  0.65485108  0.04652565     0.19700
H1674       H  0.61474284  0.56790547  0.28983250     0.19700
C1675       C  0.94025637  0.59976530  0.99314101    -0.06100
C1676       C  0.94135463  0.62188082  0.02248859    -0.17200
C1677       C  0.92239271  0.64627752  0.02205145     0.11100
C1678       C  0.89977376  0.64771334  0.99348873    -0.06000
C1679       C  0.89907271  0.62561807  0.29712455    -0.17200
C1680       C  0.91967803  0.60259745  0.29572830     0.11100
S1681       S  0.93003074  0.67566103  0.05686178    -0.32200
S1682       S  0.91910171  0.57804829  0.25335191    -0.32200
H1683       H  0.94928635  0.57193471  0.25281346     0.29200
H1684       H  0.92175695  0.69857280  0.03122215     0.29100
H1685       H  0.95787582  0.62060241  0.04525562     0.19700
H1686       H  0.88246920  0.62628008  0.27447563     0.19700
C1687       C  0.58452252  0.93793461  0.33652298    -0.06100
C1688       C  0.58236150  0.91457127  0.03028440    -0.17200
C1689       C  0.60145455  0.89036687  0.02816664     0.11100
C1690       C  0.62506824  0.89039106  0.00039953    -0.06000
C1691       C  0.62739092  0.91413467  0.30701657    -0.17200
C1692       C  0.60689814  0.93718003  0.30718973     0.11100
S1693       S  0.59275103  0.85929155  0.05947619    -0.32200
S1694       S  0.60996139  0.96443946  0.26842962    -0.32200
H1695       H  0.57975346  0.96964257  0.26500915     0.29200
H1696       H  0.60145010  0.83770026  0.03149752     0.29100
H1697       H  0.56471338  0.91456207  0.05208802     0.19700
H1698       H  0.64504411  0.91453729  0.28526248     0.19700
C1699       C  0.93157069  0.94406122  0.33072528    -0.06100
C1700       C  0.92713144  0.92654340  0.29675353    -0.17200
C1701       C  0.90713290  0.90306216  0.29695669     0.11100
C1702       C  0.88686426  0.90005880  0.99567787    -0.06000
C1703       C  0.89084298  0.91838937  0.02927788    -0.17200
C1704       C  0.91395211  0.93869501  0.03139170     0.11100
S1705       S  0.91178075  0.87575201  0.25811799    -0.32200
S1706       S  0.91985983  0.95680832  0.07854112    -0.32200
H1707       H  0.95021524  0.96060719  0.07364634     0.29200
H1708       H  0.90318828  0.85170019  0.28188149     0.29100
H1709       H  0.94102738  0.92973085  0.27081799     0.19700
H1710       H  0.87616229  0.91683432  0.05461749     0.19700
C1711       C  0.86113748  0.87918868  0.32801630     0.03200
C1712       C  0.84649939  0.87278652  0.62555503    -0.13000
C1713       C  0.82247252  0.85348522  0.62485184     0.00700
C1714       C  0.81078761  0.84277729  0.66056633    -0.11500
C1715       C  0.82441291  0.84940393  0.36321788     0.03200
C1716       C  0.85004711  0.86647360  0.36335705    -0.10900
H1717       H  0.85357438  0.88271507  0.59794349     0.08800
H1718       H  0.79193933  0.82824778  0.66020309     0.06300
H1719       H  0.86097042  0.87005968  0.39132283     0.06100
C1720       C  0.64722823  0.86609117  0.33145393     0.03200
C1721       C  0.65623589  0.85445222  0.62771530    -0.13000
C1722       C  0.67650903  0.83119220  0.62544697     0.00700
C1723       C  0.68725076  0.81870481  0.66036662    -0.11500
C1724       C  0.67919572  0.83060920  0.36406975     0.03200
C1725       C  0.65997858  0.85478152  0.36610664    -0.10900
H1726       H  0.64734194  0.86327148  0.60053331     0.08800
H1727       H  0.70274529  0.80056281  0.65865661     0.06300
H1728       H  0.65465725  0.86447936  0.39478903     0.06100
C1729       C  0.87663896  0.67139610  0.32735489     0.03200
C1730       C  0.86657369  0.68388797  0.62495052    -0.13000
C1731       C  0.84498940  0.70605845  0.62546836     0.00700
C1732       C  0.83424955  0.71691859  0.32853472    -0.11500
C1733       C  0.84348635  0.70440576  0.36422292     0.03200
C1734       C  0.86368156  0.68101766  0.36343073    -0.10900
H1735       H  0.87551790  0.67653789  0.59663643     0.08800
H1736       H  0.81801383  0.73441590  0.32904019     0.06300
H1737       H  0.86954704  0.67063334  0.39112018     0.06100
N1738       N  0.50918168  0.97276916  0.66926626    -0.36600
N1739       N  0.55657601  0.51587167  0.67192893    -0.57100
N1740       N  0.51405224  0.56340621  0.66916814    -0.36600
N1741       N  0.96662050  0.52022995  0.66311426    -0.57100
C1742       C  0.53276450  0.95499500  0.66330341     0.27000
C1743       C  0.98500504  0.95683666  0.66015296     0.27000
C1744       C  0.53924824  0.57833839  0.66186566     0.27000
C1745       C  0.99167100  0.58095403  0.65769745     0.27000
C1746       C  0.57175807  0.99114198  0.68038905     0.35600
C1747       C  0.57430675  0.53889841  0.68028308     0.35600
C1748       C  0.94779380  0.99723796  0.66704516     0.35600
C1749       C  0.95054077  0.54531008  0.66687925     0.35600
C1750       C  0.52350889  0.92749163  0.65038745    -0.21900
C1751       C  0.99353079  0.92839863  0.64922682    -0.21900
C1752       C  0.53277571  0.60563438  0.64564537    -0.21900
C1753       C  0.00278111  0.60733792  0.64316305    -0.21900
C1754       C  0.59921268  0.49842627  0.69449434    -0.22900
C1755       C  0.60081577  0.52873724  0.69446229    -0.22900
C1756       C  0.91954480  0.50791812  0.67234992    -0.22900
C1757       C  0.92134845  0.53821645  0.67290362    -0.22900
C1758       C  0.56226772  0.96213679  0.67174927    -0.18300
C1759       C  0.95551456  0.96680052  0.66382709    -0.18300
C1760       C  0.96143626  0.57446378  0.66177758    -0.18300
C1761       C  0.56778284  0.56871850  0.67171956    -0.18300
H1762       H  0.53684704  0.90833089  0.64344896     0.14600
H1763       H  0.97998969  0.90970871  0.64172725     0.14600
H1764       H  0.54804620  0.62272735  0.63687039     0.14600
H1765       H  0.99054687  0.62593234  0.63191367     0.14600
H1766       H  0.61647974  0.98348479  0.70303510     0.12900
H1767       H  0.61956723  0.54176597  0.70307791     0.12900
H1768       H  0.89953690  0.99531171  0.67518486     0.12900
H1769       H  0.90307718  0.55327900  0.67636516     0.12900
H1770       H  0.50933658  0.99331783  0.68297484     0.26200
H1771       H  0.51201231  0.54394704  0.68517899     0.26200
C1772       C  0.66289177  0.65431216  0.33099137     0.03200
C1773       C  0.67292679  0.66627939  0.62804232    -0.13000
C1774       C  0.69704398  0.68551853  0.62703240     0.00700
C1775       C  0.71042306  0.69393445  0.32923971    -0.11500
C1776       C  0.69942240  0.68374538  0.36566966     0.03200
C1777       C  0.67594948  0.66385710  0.36645369    -0.10900
H1778       H  0.66238430  0.66018769  0.60053755     0.08800
H1779       H  0.72860372  0.70930910  0.32864888     0.06300
H1780       H  0.66803839  0.65563574  0.39478831     0.06100
C1781       C  0.83274878  0.71701118  0.58804282     0.42500
N1782       N  0.80298870  0.72225611  0.53976184     0.01400
C1783       C  0.78424414  0.84402923  0.41932783    -0.06500
H1784       H  0.76647614  0.86300111  0.57655873     0.06900
C1785       C  0.68245878  0.79207399  0.56839188    -0.06800
Co1786     Co  0.81348712  0.77860178  0.49548057     0.74200
N1787       N  0.78203778  0.82746837  0.53851853    -0.25400
Co1788     Co  0.75031364  0.82133769  0.49481328     0.74100
C1789       C  0.68745214  0.82088508  0.58658975     0.42600
N1790       N  0.71424323  0.72582751  0.53927070     0.01000
N1791       N  0.71766817  0.81495858  0.53797168     0.01100
N1792       N  0.82547419  0.81636652  0.42216398    -0.46900
H1793       H  0.85391204  0.76232914  0.57659294     0.06900
N1794       N  0.80630794  0.81157649  0.53827178     0.01400
N1795       N  0.71909080  0.81402768  0.45131014     0.01100
C1796       C  0.69177523  0.81863734  0.40057825     0.42700
N1797       N  0.73853421  0.70997872  0.54005739    -0.25500
C1798       C  0.83770133  0.74415752  0.42090652    -0.06400
N1799       N  0.81055920  0.70393825  0.56850241    -0.46600
N1800       N  0.71277910  0.83208327  0.42176597    -0.46800
C1801       C  0.83187042  0.71557363  0.40239315     0.42500
N1802       N  0.80711941  0.81013567  0.45169850     0.01400
N1803       N  0.73948884  0.70880894  0.45273738    -0.25500
N1804       N  0.81879473  0.74668403  0.53949213    -0.26000
N1805       N  0.71540555  0.72496388  0.45270110     0.01000
H1806       H  0.75527118  0.67381061  0.41393279     0.06900
H1807       H  0.66976316  0.77361930  0.41144150     0.06900
N1808       N  0.78296526  0.82617141  0.45105642    -0.26000
N1809       N  0.70184926  0.79055462  0.53819971    -0.25700
N1810       N  0.80342928  0.72111348  0.45290701     0.01400
C1811       C  0.81170566  0.84207616  0.58668269     0.42800
C1812       C  0.73693051  0.69139005  0.57094920    -0.06900
N1813       N  0.70330230  0.78959254  0.45098501    -0.25700
H1814       H  0.66672386  0.77522858  0.57638360     0.06900
N1815       N  0.82456000  0.81952993  0.56666704    -0.46900
H1816       H  0.75352716  0.67562877  0.57931826     0.06900
C1817       C  0.71063098  0.69576661  0.40306432     0.42600
C1818       C  0.83794130  0.74557309  0.56941745    -0.06400
Co1819     Co  0.77123131  0.71486173  0.49646250     0.73800
N1820       N  0.69553131  0.71877117  0.56810274    -0.46600
C1821       C  0.81252426  0.83757821  0.40063155     0.42900
N1822       N  0.81023114  0.70261201  0.42353412    -0.46600
Co1823     Co  0.70806244  0.75761184  0.49530679     0.73900
C1824       C  0.68545898  0.79039851  0.41955417    -0.06900
C1825       C  0.78319515  0.84700264  0.56871514    -0.06500
N1826       N  0.81926121  0.74551571  0.45224074    -0.26000
N1827       N  0.70987001  0.83365179  0.56664684    -0.46800
H1828       H  0.76766189  0.85972400  0.41070649     0.06900
C1829       C  0.73860818  0.68983365  0.42189917    -0.06900
Cl1830     Cl  0.76077140  0.76810236  0.49562910    -0.49900
C1831       C  0.70823448  0.69693721  0.58893456     0.42600
H1832       H  0.85328151  0.76097285  0.41227093     0.06900
N1833       N  0.69755267  0.71787017  0.42350189    -0.46600
C1834       C  0.63879627  0.63202547  0.33237730    -0.06100
C1835       C  0.61585611  0.63578953  0.36025388    -0.17200
C1836       C  0.59320705  0.61507174  0.36387800     0.11100
C1837       C  0.59226633  0.59062734  0.33762158    -0.06000
C1838       C  0.61501839  0.58687659  0.64294343    -0.17200
C1839       C  0.63859293  0.60660870  0.64088905     0.11100
S1840       S  0.56651890  0.62075513  0.40311782    -0.32200
S1841       S  0.66843532  0.59687618  0.60777545    -0.32200
H1842       H  0.69057865  0.60732835  0.63288298     0.29200
H1843       H  0.56065638  0.59066028  0.40966692     0.29100
H1844       H  0.61576755  0.65485522  0.37986809     0.19700
H1845       H  0.61476202  0.56789332  0.62317162     0.19700
C1846       C  0.94022814  0.59973810  0.32649580    -0.06100
C1847       C  0.94133210  0.62186142  0.35583266    -0.17200
C1848       C  0.92236747  0.64625629  0.35539535     0.11100
C1849       C  0.89974218  0.64768563  0.32684148    -0.06000
C1850       C  0.89907578  0.62561721  0.63044292    -0.17200
C1851       C  0.91968644  0.60260123  0.62904632     0.11100
S1852       S  0.93000855  0.67564539  0.39019567    -0.32200
S1853       S  0.91911674  0.57805237  0.58666974    -0.32200
H1854       H  0.94930397  0.57195141  0.58612932     0.29200
H1855       H  0.92173651  0.69855306  0.36454842     0.29100
H1856       H  0.95785988  0.62059046  0.37859169     0.19700
H1857       H  0.88247232  0.62627610  0.60779382     0.19700
C1858       C  0.58452661  0.93793339  0.66987751    -0.06100
C1859       C  0.58236863  0.91457572  0.36362269    -0.17200
C1860       C  0.60146086  0.89037125  0.36149852     0.11100
C1861       C  0.62506949  0.89039498  0.33372308    -0.06000
C1862       C  0.62740957  0.91414996  0.64038745    -0.17200
C1863       C  0.60691109  0.93718949  0.64055577     0.11100
S1864       S  0.59276137  0.85929583  0.39281023    -0.32200
S1865       S  0.60997836  0.96445415  0.60180248    -0.32200
H1866       H  0.57977019  0.96965093  0.59837055     0.29200
H1867       H  0.60145371  0.83770484  0.36482727     0.29100
H1868       H  0.56472378  0.91456674  0.38543085     0.19700
H1869       H  0.64506851  0.91455963  0.61864218     0.19700
C1870       C  0.93156622  0.94405229  0.66406330    -0.06100
C1871       C  0.92711399  0.92654977  0.63008113    -0.17200
C1872       C  0.90711708  0.90306727  0.63027920     0.11100
C1873       C  0.88684698  0.90008245  0.32900791    -0.06000
C1874       C  0.89081315  0.91842471  0.36259905    -0.17200
C1875       C  0.91392172  0.93873060  0.36471543     0.11100
S1876       S  0.91174879  0.87577994  0.59140784    -0.32200
S1877       S  0.91981463  0.95685689  0.41185962    -0.32200
H1878       H  0.95017066  0.96065938  0.40697962     0.29200
H1879       H  0.90316733  0.85171417  0.61515273     0.29100
H1880       H  0.94099846  0.92975086  0.60413760     0.19700
H1881       H  0.87612429  0.91687661  0.38793074     0.19700
C1882       C  0.86113384  0.87917830  0.66135296     0.03200
C1883       C  0.84651706  0.87277500  0.95888803    -0.13000
C1884       C  0.82248639  0.85347771  0.95818624     0.00700
C1885       C  0.81079883  0.84277485  0.99390213    -0.11500
C1886       C  0.82441162  0.84939045  0.69655359     0.03200
C1887       C  0.85004934  0.86645448  0.69669129    -0.10900
H1888       H  0.85359612  0.88269852  0.93127502     0.08800
H1889       H  0.79194859  0.82824783  0.99354007     0.06300
H1890       H  0.86097870  0.87003025  0.72465464     0.06100
C1891       C  0.64724254  0.86610181  0.66480753     0.03200
C1892       C  0.65622367  0.85443307  0.96104291    -0.13000
C1893       C  0.67650462  0.83117947  0.95878098     0.00700
C1894       C  0.68724898  0.81869987  0.99370413    -0.11500
C1895       C  0.67920590  0.83060844  0.69740830     0.03200
C1896       C  0.65999237  0.85478355  0.69945545    -0.10900
H1897       H  0.64732944  0.86324705  0.93385796     0.08800
H1898       H  0.70274915  0.80056263  0.99199881     0.06300
H1899       H  0.65467221  0.86447604  0.72814109     0.06100
C1900       C  0.87663192  0.67139047  0.66067480     0.03200
C1901       C  0.86660175  0.68391469  0.95828787    -0.13000
C1902       C  0.84500342  0.70607006  0.95881003     0.00700
C1903       C  0.83424479  0.71691554  0.66185977    -0.11500
C1904       C  0.84347988  0.70439855  0.69754688     0.03200
C1905       C  0.86367351  0.68100896  0.69675144    -0.10900
H1906       H  0.87554914  0.67657278  0.92997189     0.08800
H1907       H  0.81801087  0.73441478  0.66236760     0.06300
H1908       H  0.86953924  0.67062291  0.72443985     0.06100
N1909       N  0.50917217  0.97276067  0.00260165    -0.36600
N1910       N  0.55655917  0.51588431  0.00522119    -0.57100
N1911       N  0.51403067  0.56341713  0.00247341    -0.36600
N1912       N  0.96662040  0.52024520  0.99643414    -0.57100
C1913       C  0.53275613  0.95499041  0.99662222     0.27000
C1914       C  0.98502702  0.95683357  0.99349645     0.27000
C1915       C  0.53922523  0.57835051  0.99516391     0.27000
C1916       C  0.99168398  0.58096563  0.99102218     0.27000
C1917       C  0.57175007  0.99114511  0.01367745     0.35600
C1918       C  0.57428694  0.53891267  0.01357815     0.35600
C1919       C  0.94780571  0.99722748  0.00037354     0.35600
C1920       C  0.95054579  0.54532846  0.00019735     0.35600
C1921       C  0.52350068  0.92748528  0.98371265    -0.21900
C1922       C  0.99356198  0.92839842  0.98257048    -0.21900
C1923       C  0.53275097  0.60564485  0.97894066    -0.21900
C1924       C  0.00279733  0.60734936  0.97649245    -0.21900
C1925       C  0.59919831  0.49844253  0.02778368    -0.22900
C1926       C  0.60079731  0.52875374  0.02775593    -0.22900
C1927       C  0.91954130  0.50794291  0.00566070    -0.22900
C1928       C  0.92135099  0.53824113  0.00621436    -0.22900
C1929       C  0.56226108  0.96213651  0.00505069    -0.18300
C1930       C  0.95553357  0.96679121  0.99715683    -0.18300
C1931       C  0.96144881  0.57447943  0.99510142    -0.18300
C1932       C  0.56775963  0.56873239  0.00501802    -0.18300
H1933       H  0.53683975  0.90832683  0.97676452     0.14600
H1934       H  0.98002713  0.90970761  0.97505599     0.14600
H1935       H  0.54802048  0.62273780  0.97016170     0.14600
H1936       H  0.99056571  0.62594673  0.96524551     0.14600
H1937       H  0.61648051  0.98349827  0.03629774     0.12900
H1938       H  0.61954704  0.54178441  0.03637370     0.12900
H1939       H  0.89954839  0.99529063  0.00850817     0.12900
H1940       H  0.90308246  0.55330787  0.00967165     0.12900
H1941       H  0.50932792  0.99330865  0.01630982     0.26200
H1942       H  0.51199370  0.54396352  0.01848613     0.26200
C1943       C  0.66290923  0.65430366  0.66432521     0.03200
C1944       C  0.67291682  0.66628043  0.96137262    -0.13000
C1945       C  0.69704217  0.68550849  0.96036455     0.00700
C1946       C  0.71041881  0.69395170  0.66257925    -0.11500
C1947       C  0.69943334  0.68374186  0.69900616     0.03200
C1948       C  0.67597172  0.66384091  0.69978742    -0.10900
H1949       H  0.66237236  0.66019441  0.93386696     0.08800
H1950       H  0.72859119  0.70933609  0.66199127     0.06300
H1951       H  0.66806977  0.65560700  0.72812016     0.06100
C1952       C  0.83275582  0.71701675  0.92138708     0.42500
N1953       N  0.80299679  0.72225048  0.87310348     0.01400
C1954       C  0.78424655  0.84401736  0.75266657    -0.06500
H1955       H  0.76648416  0.86298911  0.90990106     0.06900
C1956       C  0.68245971  0.79206183  0.90172484    -0.06800
Co1957     Co  0.81349349  0.77859217  0.82881565     0.74200
N1958       N  0.78204436  0.82745693  0.87185903    -0.25400
Co1959     Co  0.75031940  0.82132662  0.82815394     0.74100
C1960       C  0.68745372  0.82087147  0.91992664     0.42600
N1961       N  0.71424801  0.72581658  0.87260557     0.01000
N1962       N  0.71767300  0.81494610  0.87131173     0.01100
N1963       N  0.82547609  0.81635303  0.75549793    -0.46900
H1964       H  0.85392047  0.76233146  0.90992166     0.06900
N1965       N  0.80631592  0.81156716  0.87160791     0.01400
N1966       N  0.71909804  0.81401812  0.78464889     0.01100
C1967       C  0.69178844  0.81862921  0.73391103     0.42700
N1968       N  0.73854026  0.70996983  0.87339717    -0.25500
C1969       C  0.83770094  0.74414881  0.75423515    -0.06400
N1970       N  0.81056658  0.70393858  0.90185131    -0.46600
N1971       N  0.71278942  0.83207445  0.75510440    -0.46800
C1972       C  0.83186732  0.71556597  0.73572015     0.42500
N1973       N  0.80712343  0.81012419  0.78503526     0.01400
N1974       N  0.73949640  0.70879772  0.78607865    -0.25500
N1975       N  0.81880340  0.74667798  0.87282665    -0.26000
N1976       N  0.71541479  0.72495509  0.78603868     0.01000
H1977       H  0.75527724  0.67379828  0.74727497     0.06900
H1978       H  0.66977401  0.77361151  0.74476959     0.06900
N1979       N  0.78296989  0.82616087  0.78439630    -0.26000
N1980       N  0.70185270  0.79054300  0.87153547    -0.25700
N1981       N  0.80343598  0.72110191  0.78624572     0.01400
C1982       C  0.81171662  0.84206788  0.92001791     0.42800
C1983       C  0.73693428  0.69138090  0.90428851    -0.06900
N1984       N  0.70330995  0.78958284  0.78431981    -0.25700
H1985       H  0.66672322  0.77521671  0.90971275     0.06900
N1986       N  0.82457034  0.81952237  0.89999971    -0.46900
H1987       H  0.75353047  0.67562000  0.91265983     0.06900
C1988       C  0.71064043  0.69575895  0.73640243     0.42600
C1989       C  0.83795011  0.74557341  0.90275139    -0.06400
Co1990     Co  0.77123878  0.71485164  0.82980374     0.73800
N1991       N  0.69553315  0.71875808  0.90143288    -0.46600
C1992       C  0.81252448  0.83756377  0.73396635     0.42900
N1993       N  0.81023318  0.70260214  0.75686859    -0.46600
Co1994     Co  0.70806882  0.75760151  0.82864218     0.73900
C1995       C  0.68546955  0.79039000  0.75288544    -0.06900
C1996       C  0.78320335  0.84699134  0.90205556    -0.06500
N1997       N  0.81926640  0.74550504  0.78557583    -0.26000
N1998       N  0.70987386  0.83363806  0.89998790    -0.46800
H1999       H  0.76766406  0.85971247  0.74404631     0.06900
C2000       C  0.73861535  0.68982214  0.75524075    -0.06900
Cl2001     Cl  0.76077780  0.76809193  0.82896762    -0.49900
C2002       C  0.70823561  0.69692540  0.92226757     0.42600
H2003       H  0.85327798  0.76096557  0.74559482     0.06900
N2004       N  0.69756342  0.71786386  0.75683736    -0.46600
C2005       C  0.63881643  0.63201492  0.66571185    -0.06100
C2006       C  0.61587829  0.63577863  0.69359079    -0.17200
C2007       C  0.59322922  0.61506168  0.69721656     0.11100
C2008       C  0.59228704  0.59061649  0.67096183    -0.06000
C2009       C  0.61499368  0.58689252  0.97624763    -0.17200
C2010       C  0.63857167  0.60661983  0.97420311     0.11100
S2011       S  0.56654058  0.62074892  0.73645438    -0.32200
S2012       S  0.66841513  0.59688414  0.94109305    -0.32200
H2013       H  0.69055817  0.60732767  0.96620729     0.29200
H2014       H  0.56068126  0.59065442  0.74301133     0.29100
H2015       H  0.61579067  0.65484475  0.71320446     0.19700
H2016       H  0.61473634  0.56791165  0.95647158     0.19700
C2017       C  0.94023673  0.59974544  0.65981396    -0.06100
C2018       C  0.94133669  0.62186957  0.68915015    -0.17200
C2019       C  0.92236616  0.64626005  0.68871374     0.11100
C2020       C  0.89973998  0.64768437  0.66016057    -0.06000
C2021       C  0.89911325  0.62565517  0.96375867    -0.17200
C2022       C  0.91971951  0.60263630  0.96236039     0.11100
S2023       S  0.92999974  0.67565025  0.72351580    -0.32200
S2024       S  0.91916327  0.57810484  0.91996506    -0.32200
H2025       H  0.94934898  0.57199626  0.91944392     0.29200
H2026       H  0.92172321  0.69855659  0.69786906     0.29100
H2027       H  0.95786422  0.62060188  0.71190946     0.19700
H2028       H  0.88251616  0.62632250  0.94110147     0.19700
C2029       C  0.58451949  0.93793078  0.00318531    -0.06100
C2030       C  0.58237109  0.91457010  0.69697019    -0.17200
C2031       C  0.60146919  0.89037045  0.69484779     0.11100
C2032       C  0.62508483  0.89040484  0.66708412    -0.06000
C2033       C  0.62739448  0.91413136  0.97369454    -0.17200
C2034       C  0.60690134  0.93717642  0.97385998     0.11100
S2035       S  0.59276911  0.85928709  0.72614461    -0.32200
S2036       S  0.60997304  0.96443486  0.93509941    -0.32200
H2037       H  0.57976655  0.96964395  0.93167427     0.29200
H2038       H  0.60146913  0.83770298  0.69815630     0.29100
H2039       H  0.56472148  0.91455414  0.71877131     0.19700
H2040       H  0.64505162  0.91453409  0.95194624     0.19700
C2041       C  0.93158959  0.94403764  0.99739413    -0.06100
C2042       C  0.92714183  0.92652799  0.96341692    -0.17200
C2043       C  0.90714155  0.90304764  0.96361743     0.11100
C2044       C  0.88684528  0.90007013  0.66234441    -0.06000
C2045       C  0.89082556  0.91839627  0.69594849    -0.17200
C2046       C  0.91393253  0.93870430  0.69806283     0.11100
S2047       S  0.91177363  0.87575215  0.92475679    -0.32200
S2048       S  0.91984204  0.95681236  0.74521525    -0.32200
H2049       H  0.95019576  0.96062034  0.74031518     0.29200
H2050       H  0.90318619  0.85169218  0.94850860     0.29100
H2051       H  0.94102933  0.92972393  0.93747497     0.19700
H2052       H  0.87614779  0.91683615  0.72129065     0.19700
loop_ 
_geom_bond_atom_site_label_1 
_geom_bond_atom_site_label_2 
_geom_bond_distance 
_geom_bond_site_symmetry_2 
_ccdc_geom_bond_type 
C1            C6   1.413   1_556  A
C1          C344   1.414       .  A
C1          C163   1.510       .  S
C2            C3   1.404       .  A
C2          C172   1.414       .  A
C2            H7   1.081       .  S
C3            C4   1.399       .  A
C3          C101   1.473       .  S
C4          C176   1.400       .  A
C4            H8   1.084       .  S
C5            C6   1.404       .  A
C5          C346   1.400   1_554  A
C5          C111   1.469       .  S
C6            H9   1.082       .  S
C10          C15   1.409   1_556  A
C10         C353   1.409       .  A
C10         C151   1.495   1_556  S
C11          C12   1.403       .  A
C11         C181   1.409       .  A
C11          H16   1.084       .  S
C12          C13   1.401       .  A
C12          C79   1.468       .  S
C13         C185   1.400       .  A
C13          H17   1.084       .  S
C14          C15   1.403       .  A
C14         C355   1.400   1_554  A
C14          C86   1.469       .  S
C15          H18   1.083       .  S
C19          C24   1.411   1_556  A
C19         C362   1.413       .  A
C19         C139   1.504       .  S
C20          C21   1.406       .  A
C20         C190   1.413       .  A
C20          H25   1.083       .  S
C21         C193   1.401       .  A
C21          C71   1.473       .  S
C22          C23   1.400   1_556  A
C22         C363   1.401       .  A
C22          H26   1.084       .  S
C23          C24   1.403       .  A
C23          C91   1.471       .  S
C24          H27   1.083       .  S
N28          H60   1.035       .  S
N28          C32   1.356       .  A
N28        C1059   1.356   1_455  A
N29          C37   1.351       .  A
N29         C549   1.351   1_545  A
N30          H61   1.039       .  S
N30          C34   1.356       .  A
N30        C1061   1.354   1_455  A
N31          C39   1.356       .  A
N31         C551   1.356   1_545  A
C32          C40   1.384       .  A
C32          C48   1.419       .  A
C33          C49   1.424       .  A
C33          C41   1.390       .  A
C33        N1054   1.356       .  A
C34          C42   1.386       .  A
C34          C51   1.418       .  A
C35          C50   1.418       .  A
C35          C43   1.387       .  A
C35        N1056   1.354       .  A
C36          C48   1.413       .  A
C36         C557   1.386       .  A
C36         N542   1.351       .  A
C37          C51   1.414       .  A
C37          C45   1.386       .  A
C38          C49   1.425       .  A
C38         C559   1.387       .  A
C38         N544   1.356       .  A
C39          C47   1.385       .  A
C39          C50   1.421       .  A
C40        C1067   1.371   1_455  A
C40          H52   1.082       .  S
C41        C1066   1.371       .  A
C41          H53   1.079       .  S
C42        C1069   1.375       .  A
C42          H54   1.082       .  S
C43        C1068   1.375       .  A
C43          H55   1.082       .  S
C44          C45   1.374   1_565  A
C44         C549   1.386       .  A
C44         H569   1.082       .  S
C45          H57   1.082       .  S
C46          C47   1.374       .  A
C46         C551   1.387   1_545  A
C46         H571   1.081   1_545  S
C47          H59   1.082       .  S
C48         C148   1.494       .  S
C49         C160   1.503       .  S
C50         C307   1.500       .  S
C51         C298   1.496       .  S
H56         C557   1.082       .  S
H58         C559   1.081       .  S
C62          C67   1.407   1_556  A
C62         C405   1.410       .  A
C62         C124   1.494       .  S
C63          C64   1.405       .  A
C63         C233   1.410       .  A
C63          H68   1.083       .  S
C64         C236   1.402       .  A
C64         C121   1.471       .  S
C65          C66   1.400   1_556  A
C65         C406   1.402       .  A
C65          H69   1.084       .  S
C66          C67   1.401       .  A
C66         C107   1.467       .  S
C67          H70   1.084       .  S
C71         C108   1.458       .  S
C71          N89   1.351       .  A
N72          N89   1.326       .  A
N72          N94   1.321       .  A
N72        Co109   2.095       .  S
C73         C111   1.459       .  S
C73         H118   1.081       .  S
C73          N98   1.344       .  A
H74         C115   1.081       .  S
C75          C79   1.457       .  S
C75         H104   1.081       .  S
C75          N99   1.342       .  A
Co76         N94   2.091       .  S
Co76         N84   2.091       .  S
Co76        N116   2.097       .  S
Co76         N92   2.080       .  S
Co76       Cl120   2.456       .  S
N77         C115   1.345       .  A
N77          N84   1.321       .  A
N77         Co78   2.096       .  S
Co78         N81   2.091       .  S
Co78         N98   2.097       .  S
Co78         N85   2.082       .  S
Co78       Cl120   2.456       .  S
C79         N117   1.350       .  A
N80          N87   1.322       .  A
N80         N110   1.326       .  A
N80        Co113   2.091       .  S
N81          N99   1.321       .  A
N81         N117   1.325       .  A
N82         C111   1.347       .  A
N82          N92   1.325       .  A
H83         C108   1.081       .  S
N84         N105   1.325       .  A
N85         N103   1.321       .  A
N85          N90   1.325       .  A
C86         C114   1.459       .  S
C86          N90   1.347       .  A
N87         C102   1.342       .  A
N87        Co109   2.094       .  S
C88          C91   1.459       .  S
C88         H122   1.081       .  S
C88         N116   1.343       .  A
C91         N112   1.348       .  A
N92          N98   1.321       .  A
N93         C119   1.345       .  A
N93          N95   1.321       .  A
N93        Co109   2.096       .  S
N94         C108   1.343       .  A
N95         N123   1.323       .  A
N95        Co113   2.077       .  S
H96         C119   1.081       .  S
H97         C114   1.081       .  S
N99        Co113   2.086       .  S
N100        N112   1.326       .  A
N100        N116   1.321       .  A
N100       Co109   2.085       .  S
C101        C115   1.460       .  S
C101        N105   1.350       .  A
C102        C121   1.459       .  S
C102        H106   1.081       .  S
N103        C114   1.344       .  A
N103       Co113   2.097       .  S
C107        C119   1.459       .  S
C107        N123   1.346       .  A
Co109      Cl120   2.456       .  S
N110        C121   1.349       .  A
Co113      Cl120   2.456       .  S
C124        C125   1.408   1_556  A
C124        C471   1.418       .  A
C125        C126   1.402       .  A
C125        H134   1.083       .  S
C126        C127   1.413       .  A
C126        S130   1.804       .  S
C127        C470   1.404   1_554  A
C127        C393   1.496       .  S
C128        C129   1.401       .  A
C128        C298   1.404       .  A
C128        H135   1.084       .  S
C129        C295   1.418       .  A
C129        S131   1.804       .  S
S130        H133   1.406       .  S
S131        H132   1.407       .  S
C136        C137   1.404   1_556  A
C136        C483   1.413       .  A
C136        C392   1.500       .  S
C137        C138   1.403       .  A
C137        H146   1.084       .  S
C138        C139   1.422   1_554  A
C138        S142   1.805       .  S
C139        C482   1.410       .  A
C140        C141   1.404       .  A
C140        C310   1.410       .  A
C140        H147   1.083       .  S
C141        C307   1.413       .  A
C141        S143   1.804       .  S
S142        H145   1.407       .  S
S143        H144   1.406       .  S
C148        C153   1.413       .  A
C148        C320   1.403       .  A
C149        C150   1.400       .  A
C149        C490   1.403       .  A
C149        H158   1.084       .  S
C150        C151   1.419       .  A
C150        S154   1.804       .  S
C151        C494   1.408   1_554  A
C152        C153   1.401       .  A
C152        C322   1.408       .  A
C152        H159   1.083       .  S
C153        S155   1.805       .  S
S154        H157   1.407       .  S
S155        H156   1.406       .  S
C160        C161   1.405       .  A
C160        C336   1.414       .  A
C161        C162   1.402       .  A
C161        H170   1.084       .  S
C162        C334   1.421       .  A
C162        S166   1.805       .  S
C163        C164   1.413   1_556  A
C163        C504   1.421       .  A
C164        C165   1.403       .  A
C164        H171   1.082       .  S
C165        C502   1.414   1_554  A
C165        S167   1.806       .  S
S166        H169   1.408       .  S
S167        H168   1.406       .  S
C172        C177   1.413       .  A
C172        C334   1.510       .  S
C173        C343   1.414       .  A
C173        C174   1.404       .  A
C173        H178   1.081       .  S
C174        C175   1.399       .  A
C174        C272   1.473       .  S
C175        C347   1.400       .  A
C175        H179   1.084       .  S
C176        C177   1.404       .  A
C176        C282   1.469       .  S
C177        H180   1.082       .  S
C181        C186   1.409       .  A
C181        C322   1.495       .  S
C182        C352   1.409       .  A
C182        C183   1.403       .  A
C182        H187   1.084       .  S
C183        C184   1.401       .  A
C183        C250   1.468       .  S
C184        C356   1.400       .  A
C184        H188   1.084       .  S
C185        C186   1.403       .  A
C185        C257   1.469       .  S
C186        H189   1.083       .  S
C190        C195   1.411       .  A
C190        C310   1.504       .  S
C191        C361   1.413       .  A
C191        C192   1.406       .  A
C191        H196   1.083       .  S
C192        C364   1.401       .  A
C192        C242   1.473       .  S
C193        C194   1.400       .  A
C193        H197   1.084       .  S
C194        C195   1.403       .  A
C194        C262   1.471       .  S
C195        H198   1.083       .  S
N199        H231   1.036       .  S
N199       C1230   1.356   1_455  A
N199        C203   1.356       .  A
N200        C720   1.351   1_545  A
N200        C208   1.351       .  A
N201        H232   1.038       .  S
N201       C1232   1.354   1_455  A
N201        C205   1.356       .  A
N202        C722   1.356   1_545  A
N202        C210   1.356       .  A
C203        C211   1.384       .  A
C203        C219   1.419       .  A
C204        C220   1.424       .  A
C204        C212   1.390       .  A
C204       N1225   1.356       .  A
C205        C213   1.386       .  A
C205        C222   1.418       .  A
C206        C221   1.418       .  A
C206        C214   1.387       .  A
C206       N1227   1.354       .  A
C207        C219   1.413       .  A
C207        C728   1.386       .  A
C207        N713   1.351       .  A
C208        C222   1.414       .  A
C208        C216   1.386       .  A
C209        C730   1.387       .  A
C209        C220   1.425       .  A
C209        N715   1.356       .  A
C210        C218   1.385       .  A
C210        C221   1.421       .  A
C211       C1238   1.371   1_455  A
C211        H223   1.082       .  S
C212       C1237   1.371       .  A
C212        H224   1.079       .  S
C213       C1240   1.375       .  A
C213        H225   1.082       .  S
C214       C1239   1.375       .  A
C214        H226   1.082       .  S
C215        C720   1.386       .  A
C215        C216   1.374   1_565  A
C215        H740   1.082       .  S
C216        H228   1.082       .  S
C217        C722   1.387   1_545  A
C217        C218   1.374       .  A
C217        H742   1.081   1_545  S
C218        H230   1.082       .  S
C219        C319   1.494       .  S
C220        C331   1.503       .  S
C221        C478   1.500       .  S
C222        C469   1.496       .  S
H227        C728   1.082       .  S
H229        C730   1.081       .  S
C233        C238   1.407       .  A
C233        C295   1.494       .  S
C234        C404   1.410       .  A
C234        C235   1.405       .  A
C234        H239   1.083       .  S
C235        C407   1.402       .  A
C235        C292   1.472       .  S
C236        C237   1.400       .  A
C236        H240   1.084       .  S
C237        C238   1.401       .  A
C237        C278   1.467       .  S
C238        H241   1.084       .  S
C242        C279   1.458       .  S
C242        N260   1.351       .  A
N243        N260   1.326       .  A
N243        N265   1.321       .  A
N243       Co280   2.095       .  S
C244        C282   1.459       .  S
C244        H289   1.081       .  S
C244        N269   1.344       .  A
H245        C286   1.081       .  S
C246        C250   1.457       .  S
C246        H275   1.081       .  S
C246        N270   1.342       .  A
Co247       N265   2.091       .  S
Co247       N255   2.091       .  S
Co247       N287   2.097       .  S
Co247       N263   2.080       .  S
Co247      Cl291   2.456       .  S
N248        C286   1.345       .  A
N248        N255   1.321       .  A
N248       Co249   2.096       .  S
Co249       N252   2.091       .  S
Co249       N269   2.097       .  S
Co249       N256   2.082       .  S
Co249      Cl291   2.456       .  S
C250        N288   1.350       .  A
N251        N258   1.322       .  A
N251        N281   1.326       .  A
N251       Co284   2.091       .  S
N252        N270   1.321       .  A
N252        N288   1.325       .  A
N253        C282   1.347       .  A
N253        N263   1.325       .  A
H254        C279   1.081       .  S
N255        N276   1.325       .  A
N256        N274   1.321       .  A
N256        N261   1.325       .  A
C257        C285   1.459       .  S
C257        N261   1.347       .  A
N258        C273   1.342       .  A
N258       Co280   2.094       .  S
C259        C262   1.459       .  S
C259        H293   1.081       .  S
C259        N287   1.343       .  A
C262        N283   1.348       .  A
N263        N269   1.321       .  A
N264        C290   1.345       .  A
N264        N266   1.321       .  A
N264       Co280   2.096       .  S
N265        C279   1.343       .  A
N266        N294   1.323       .  A
N266       Co284   2.077       .  S
H267        C290   1.081       .  S
H268        C285   1.081       .  S
N270       Co284   2.086       .  S
N271        N283   1.326       .  A
N271        N287   1.321       .  A
N271       Co280   2.085       .  S
C272        C286   1.461       .  S
C272        N276   1.350       .  A
C273        C292   1.459       .  S
C273        H277   1.081       .  S
N274        C285   1.344       .  A
N274       Co284   2.097       .  S
C278        C290   1.459       .  S
C278        N294   1.346       .  A
Co280      Cl291   2.456       .  S
N281        C292   1.349       .  A
Co284      Cl291   2.456       .  S
C295        C296   1.408       .  A
C296        C297   1.402       .  A
C296        H305   1.083       .  S
C297        C298   1.413       .  A
C297        S301   1.804       .  S
C299        C469   1.404       .  A
C299        C300   1.401       .  A
C299        H306   1.084       .  S
C300        C466   1.418       .  A
C300        S302   1.804       .  S
S301        H304   1.406       .  S
S302        H303   1.407       .  S
C307        C308   1.404       .  A
C308        C309   1.403       .  A
C308        H317   1.084       .  S
C309        C310   1.422       .  A
C309        S313   1.805       .  S
C311        C481   1.410       .  A
C311        C312   1.404       .  A
C311        H318   1.083       .  S
C312        C478   1.413       .  A
C312        S314   1.804       .  S
S313        H316   1.407       .  S
S314        H315   1.406       .  S
C319        C491   1.403       .  A
C319        C324   1.413       .  A
C320        C321   1.400       .  A
C320        H329   1.084       .  S
C321        C322   1.419       .  A
C321        S325   1.804       .  S
C323        C493   1.408       .  A
C323        C324   1.401       .  A
C323        H330   1.083       .  S
C324        S326   1.805       .  S
S325        H328   1.407       .  S
S326        H327   1.406       .  S
C331        C332   1.405       .  A
C331        C507   1.414       .  A
C332        C333   1.402       .  A
C332        H341   1.084       .  S
C333        C505   1.421       .  A
C333        S337   1.805       .  S
C334        C335   1.413       .  A
C335        C336   1.403       .  A
C335        H342   1.082       .  S
C336        S338   1.806       .  S
S337        H340   1.408       .  S
S338        H339   1.406       .  S
C343        C348   1.413       .  A
C343        C505   1.510       .  S
C344        C345   1.404       .  A
C344        H349   1.081       .  S
C345        C346   1.399       .  A
C345        C443   1.473       .  S
C346        H350   1.084       .  S
C347        C348   1.404       .  A
C347        C453   1.470       .  S
C348        H351   1.082       .  S
C352        C357   1.409       .  A
C352        C493   1.495       .  S
C353        C354   1.403       .  A
C353        H358   1.084       .  S
C354        C355   1.401       .  A
C354        C421   1.468       .  S
C355        H359   1.084       .  S
C356        C357   1.403       .  A
C356        C428   1.469       .  S
C357        H360   1.083       .  S
C361        C366   1.411       .  A
C361        C481   1.504       .  S
C362        C363   1.406       .  A
C362        H367   1.083       .  S
C363        C413   1.473       .  S
C364        C365   1.400       .  A
C364        H368   1.084       .  S
C365        C366   1.403       .  A
C365        C433   1.471       .  S
C366        H369   1.083       .  S
N370        H402   1.036       .  S
N370       C1401   1.356   1_454  A
N370        C374   1.356   1_554  A
N371        C891   1.351   1_545  A
N371        C379   1.351       .  A
N372        H403   1.038       .  S
N372       C1403   1.354   1_454  A
N372        C376   1.356   1_554  A
N373        C893   1.356   1_546  A
N373        C381   1.356   1_556  A
C374        C382   1.384       .  A
C374        C390   1.419   1_556  A
C375        C391   1.424       .  A
C375        C383   1.390       .  A
C375       N1396   1.356   1_556  A
C376        C384   1.386       .  A
C376        C393   1.418   1_556  A
C377        C392   1.418       .  A
C377        C385   1.387       .  A
C377       N1398   1.354   1_556  A
C378        C390   1.413       .  A
C378        C899   1.386       .  A
C378        N884   1.351       .  A
C379        C393   1.414       .  A
C379        C387   1.386       .  A
C380        C901   1.387       .  A
C380        C391   1.425   1_554  A
C380        N886   1.356   1_554  A
C381        C389   1.385       .  A
C381        C392   1.421   1_554  A
C382       C1409   1.371   1_455  A
C382        H394   1.082       .  S
C383       C1408   1.371       .  A
C383        H395   1.079       .  S
C384       C1411   1.375       .  A
C384        H396   1.082       .  S
C385       C1410   1.375       .  A
C385        H397   1.082       .  S
C386        C891   1.386       .  A
C386        C387   1.374   1_565  A
C386        H911   1.082       .  S
C387        H399   1.082       .  S
C388        C893   1.387   1_545  A
C388        C389   1.374       .  A
C388        H913   1.081   1_545  S
C389        H401   1.082       .  S
C390        C490   1.494       .  S
C391        C502   1.503       .  S
H398        C899   1.082       .  S
H400        C901   1.081       .  S
C404        C409   1.407       .  A
C404        C466   1.494       .  S
C405        C406   1.405       .  A
C405        H410   1.083       .  S
C406        C463   1.472       .  S
C407        C408   1.400       .  A
C407        H411   1.084       .  S
C408        C409   1.401       .  A
C408        C449   1.467       .  S
C409        H412   1.084       .  S
C413        C450   1.458       .  S
C413        N431   1.351       .  A
N414        N431   1.326       .  A
N414        N436   1.321       .  A
N414       Co451   2.095       .  S
C415        C453   1.459       .  S
C415        H460   1.081       .  S
C415        N440   1.344       .  A
H416        C457   1.081       .  S
C417        C421   1.457       .  S
C417        H446   1.081       .  S
C417        N441   1.342       .  A
Co418       N436   2.091       .  S
Co418       N426   2.091       .  S
Co418       N458   2.097       .  S
Co418       N434   2.080       .  S
Co418      Cl462   2.456       .  S
N419        C457   1.345       .  A
N419        N426   1.321       .  A
N419       Co420   2.096       .  S
Co420       N423   2.091       .  S
Co420       N440   2.097       .  S
Co420       N427   2.082       .  S
Co420      Cl462   2.456       .  S
C421        N459   1.350       .  A
N422        N429   1.322       .  A
N422        N452   1.326       .  A
N422       Co455   2.091       .  S
N423        N441   1.321       .  A
N423        N459   1.325       .  A
N424        C453   1.347       .  A
N424        N434   1.325       .  A
H425        C450   1.081       .  S
N426        N447   1.325       .  A
N427        N445   1.321       .  A
N427        N432   1.325       .  A
C428        C456   1.459       .  S
C428        N432   1.347       .  A
N429        C444   1.342       .  A
N429       Co451   2.094       .  S
C430        C433   1.459       .  S
C430        H464   1.081       .  S
C430        N458   1.343       .  A
C433        N454   1.348       .  A
N434        N440   1.321       .  A
N435        C461   1.345       .  A
N435        N437   1.321       .  A
N435       Co451   2.096       .  S
N436        C450   1.343       .  A
N437        N465   1.323       .  A
N437       Co455   2.077       .  S
H438        C461   1.081       .  S
H439        C456   1.081       .  S
N441       Co455   2.086       .  S
N442        N454   1.326       .  A
N442        N458   1.321       .  A
N442       Co451   2.085       .  S
C443        C457   1.460       .  S
C443        N447   1.350       .  A
C444        C463   1.459       .  S
C444        H448   1.081       .  S
N445        C456   1.344       .  A
N445       Co455   2.097       .  S
C449        C461   1.459       .  S
C449        N465   1.346       .  A
Co451      Cl462   2.456       .  S
N452        C463   1.349       .  A
Co455      Cl462   2.456       .  S
C466        C467   1.408       .  A
C467        C468   1.402       .  A
C467        H476   1.083       .  S
C468        C469   1.413       .  A
C468        S472   1.804       .  S
C470        C471   1.401       .  A
C470        H477   1.084       .  S
C471        S473   1.804       .  S
S472        H475   1.406       .  S
S473        H474   1.407       .  S
C478        C479   1.404       .  A
C479        C480   1.403       .  A
C479        H488   1.084       .  S
C480        C481   1.422       .  A
C480        S484   1.805       .  S
C482        C483   1.404       .  A
C482        H489   1.083       .  S
C483        S485   1.804       .  S
S484        H487   1.407       .  S
S485        H486   1.406       .  S
C490        C495   1.413   1_554  A
C491        C492   1.400       .  A
C491        H500   1.084       .  S
C492        C493   1.419       .  A
C492        S496   1.804       .  S
C494        C495   1.401       .  A
C494        H501   1.083       .  S
C495        S497   1.805       .  S
S496        H499   1.407       .  S
S497        H498   1.406       .  S
C502        C503   1.405       .  A
C503        C504   1.402       .  A
C503        H512   1.084       .  S
C504        S508   1.805       .  S
C505        C506   1.413       .  A
C506        C507   1.403       .  A
C506        H513   1.082       .  S
C507        S509   1.806       .  S
S508        H511   1.408       .  S
S509        H510   1.406       .  S
C514        C857   1.414       .  A
C514        C519   1.413   1_556  A
C514        C676   1.510       .  S
C515        C685   1.414       .  A
C515        C516   1.404       .  A
C515        H520   1.081       .  S
C516        C517   1.399       .  A
C516        C614   1.472       .  S
C517        C689   1.400       .  A
C517        H521   1.084       .  S
C518        C859   1.400   1_554  A
C518        C519   1.404       .  A
C518        C624   1.469       .  S
C519        H522   1.082       .  S
C523        C866   1.409       .  A
C523        C528   1.409   1_556  A
C523        C664   1.495   1_556  S
C524        C694   1.409       .  A
C524        C525   1.403       .  A
C524        H529   1.084       .  S
C525        C526   1.401       .  A
C525        C592   1.468       .  S
C526        C698   1.400       .  A
C526        H530   1.084       .  S
C527        C868   1.400   1_554  A
C527        C528   1.403       .  A
C527        C599   1.469       .  S
C528        H531   1.083       .  S
C532        C875   1.413       .  A
C532        C537   1.411   1_556  A
C532        C652   1.504       .  S
C533        C703   1.413       .  A
C533        C534   1.406       .  A
C533        H538   1.083       .  S
C534        C706   1.401       .  A
C534        C584   1.473       .  S
C535        C876   1.401       .  A
C535        C536   1.400   1_556  A
C535        H539   1.084       .  S
C536        C537   1.403       .  A
C536        C604   1.471       .  S
C537        H540   1.083       .  S
N541        H573   1.036       .  S
N541       C1572   1.356   1_455  A
N541        C545   1.356       .  A
N542        C550   1.351       .  A
N543        H574   1.038       .  S
N543       C1574   1.354   1_455  A
N543        C547   1.356       .  A
N544        C552   1.356       .  A
C545        C553   1.384       .  A
C545        C561   1.419       .  A
C546        C562   1.424       .  A
C546        C554   1.390       .  A
C546       N1567   1.356       .  A
C547        C555   1.386       .  A
C547        C564   1.418       .  A
C548        C563   1.418       .  A
C548        C556   1.387       .  A
C548       N1569   1.354       .  A
C549        C561   1.413       .  A
C550        C564   1.413       .  A
C550        C558   1.386       .  A
C551        C562   1.425       .  A
C552        C560   1.385       .  A
C552        C563   1.421       .  A
C553       C1580   1.371   1_455  A
C553        H565   1.082       .  S
C554       C1579   1.371       .  A
C554        H566   1.079       .  S
C555       C1582   1.375       .  A
C555        H567   1.082       .  S
C556       C1581   1.375       .  A
C556        H568   1.082       .  S
C557        C558   1.374       .  A
C558        H570   1.082       .  S
C559        C560   1.374       .  A
C560        H572   1.082       .  S
C561        C661   1.494       .  S
C562        C673   1.503       .  S
C563        C820   1.500       .  S
C564        C811   1.496       .  S
C575        C918   1.410       .  A
C575        C580   1.407   1_556  A
C575        C637   1.494       .  S
C576        C746   1.410       .  A
C576        C577   1.405       .  A
C576        H581   1.083       .  S
C577        C749   1.402       .  A
C577        C634   1.472       .  S
C578        C919   1.402       .  A
C578        C579   1.400   1_556  A
C578        H582   1.084       .  S
C579        C580   1.401       .  A
C579        C620   1.467       .  S
C580        H583   1.084       .  S
C584        C621   1.458       .  S
C584        N602   1.351       .  A
N585        N602   1.326       .  A
N585        N607   1.321       .  A
N585       Co622   2.095       .  S
C586        C624   1.459       .  S
C586        H631   1.081       .  S
C586        N611   1.344       .  A
H587        C628   1.081       .  S
C588        C592   1.457       .  S
C588        H617   1.081       .  S
C588        N612   1.342       .  A
Co589       N607   2.091       .  S
Co589       N597   2.091       .  S
Co589       N629   2.097       .  S
Co589       N605   2.080       .  S
Co589      Cl633   2.456       .  S
N590        C628   1.345       .  A
N590        N597   1.321       .  A
N590       Co591   2.096       .  S
Co591       N594   2.091       .  S
Co591       N611   2.097       .  S
Co591       N598   2.082       .  S
Co591      Cl633   2.456       .  S
C592        N630   1.350       .  A
N593        N600   1.322       .  A
N593        N623   1.326       .  A
N593       Co626   2.091       .  S
N594        N612   1.321       .  A
N594        N630   1.325       .  A
N595        C624   1.347       .  A
N595        N605   1.325       .  A
H596        C621   1.081       .  S
N597        N618   1.325       .  A
N598        N616   1.321       .  A
N598        N603   1.325       .  A
C599        C627   1.459       .  S
C599        N603   1.347       .  A
N600        C615   1.342       .  A
N600       Co622   2.094       .  S
C601        C604   1.459       .  S
C601        H635   1.081       .  S
C601        N629   1.343       .  A
C604        N625   1.348       .  A
N605        N611   1.321       .  A
N606        C632   1.345       .  A
N606        N608   1.321       .  A
N606       Co622   2.096       .  S
N607        C621   1.343       .  A
N608        N636   1.323       .  A
N608       Co626   2.077       .  S
H609        C632   1.081       .  S
H610        C627   1.081       .  S
N612       Co626   2.086       .  S
N613        N625   1.326       .  A
N613        N629   1.321       .  A
N613       Co622   2.085       .  S
C614        C628   1.460       .  S
C614        N618   1.350       .  A
C615        C634   1.459       .  S
C615        H619   1.081       .  S
N616        C627   1.344       .  A
N616       Co626   2.097       .  S
C620        C632   1.459       .  S
C620        N636   1.346       .  A
Co622      Cl633   2.456       .  S
N623        C634   1.349       .  A
Co626      Cl633   2.456       .  S
C637        C638   1.408   1_556  A
C637        C984   1.418       .  A
C638        C639   1.402       .  A
C638        H647   1.083       .  S
C639        C640   1.413       .  A
C639        S643   1.804       .  S
C640        C983   1.404   1_554  A
C640        C906   1.496       .  S
C641        C811   1.404       .  A
C641        C642   1.401       .  A
C641        H648   1.084       .  S
C642        C808   1.418       .  A
C642        S644   1.804       .  S
S643        H646   1.406       .  S
S644        H645   1.407       .  S
C649        C650   1.404   1_556  A
C649        C996   1.413       .  A
C649        C905   1.500       .  S
C650        C651   1.403       .  A
C650        H659   1.084       .  S
C651        C652   1.422   1_554  A
C651        S655   1.805       .  S
C652        C995   1.410       .  A
C653        C823   1.410       .  A
C653        C654   1.404       .  A
C653        H660   1.083       .  S
C654        C820   1.413       .  A
C654        S656   1.804       .  S
S655        H658   1.407       .  S
S656        H657   1.406       .  S
C661        C833   1.403       .  A
C661        C666   1.413       .  A
C662       C1003   1.403       .  A
C662        C663   1.400       .  A
C662        H671   1.084       .  S
C663        C664   1.419       .  A
C663        S667   1.804       .  S
C664       C1007   1.408   1_554  A
C665        C835   1.408       .  A
C665        C666   1.401       .  A
C665        H672   1.083       .  S
C666        S668   1.805       .  S
S667        H670   1.407       .  S
S668        H669   1.406       .  S
C673        C674   1.405       .  A
C673        C849   1.414       .  A
C674        C675   1.402       .  A
C674        H683   1.084       .  S
C675        C847   1.421       .  A
C675        S679   1.805       .  S
C676       C1017   1.421       .  A
C676        C677   1.413   1_556  A
C677        C678   1.403       .  A
C677        H684   1.082       .  S
C678       C1015   1.414   1_554  A
C678        S680   1.806       .  S
S679        H682   1.408       .  S
S680        H681   1.406       .  S
C685        C690   1.413       .  A
C685        C847   1.510       .  S
C686        C856   1.414       .  A
C686        C687   1.404       .  A
C686        H691   1.081       .  S
C687        C688   1.399       .  A
C687        C785   1.473       .  S
C688        C860   1.400       .  A
C688        H692   1.084       .  S
C689        C690   1.404       .  A
C689        C795   1.469       .  S
C690        H693   1.082       .  S
C694        C699   1.409       .  A
C694        C835   1.495       .  S
C695        C865   1.409       .  A
C695        C696   1.403       .  A
C695        H700   1.084       .  S
C696        C697   1.401       .  A
C696        C763   1.468       .  S
C697        C869   1.400       .  A
C697        H701   1.084       .  S
C698        C699   1.403       .  A
C698        C770   1.469       .  S
C699        H702   1.083       .  S
C703        C708   1.411       .  A
C703        C823   1.504       .  S
C704        C874   1.413       .  A
C704        C705   1.406       .  A
C704        H709   1.083       .  S
C705        C877   1.401       .  A
C705        C755   1.473       .  S
C706        C707   1.400       .  A
C706        H710   1.084       .  S
C707        C708   1.403       .  A
C707        C775   1.471       .  S
C708        H711   1.083       .  S
N712        H744   1.036       .  S
N712       C1743   1.356   1_455  A
N712        C716   1.356       .  A
N713        C721   1.351       .  A
N714        H745   1.039       .  S
N714       C1745   1.354   1_455  A
N714        C718   1.356       .  A
N715        C723   1.356       .  A
C716        C724   1.384       .  A
C716        C732   1.419       .  A
C717        C733   1.424       .  A
C717        C725   1.390       .  A
C717       N1738   1.356       .  A
C718        C726   1.386       .  A
C718        C735   1.418       .  A
C719        C734   1.418       .  A
C719        C727   1.387       .  A
C719       N1740   1.354       .  A
C720        C732   1.413       .  A
C721        C735   1.414       .  A
C721        C729   1.386       .  A
C722        C733   1.425       .  A
C723        C731   1.385       .  A
C723        C734   1.421       .  A
C724       C1751   1.371   1_455  A
C724        H736   1.082       .  S
C725       C1750   1.371       .  A
C725        H737   1.079       .  S
C726       C1753   1.375       .  A
C726        H738   1.082       .  S
C727       C1752   1.375       .  A
C727        H739   1.082       .  S
C728        C729   1.374       .  A
C729        H741   1.082       .  S
C730        C731   1.374       .  A
C731        H743   1.082       .  S
C732        C832   1.494       .  S
C733        C844   1.503       .  S
C734        C991   1.500       .  S
C735        C982   1.496       .  S
C746        C751   1.407       .  A
C746        C808   1.494       .  S
C747        C917   1.410       .  A
C747        C748   1.405       .  A
C747        H752   1.083       .  S
C748        C920   1.402       .  A
C748        C805   1.471       .  S
C749        C750   1.400       .  A
C749        H753   1.084       .  S
C750        C751   1.401       .  A
C750        C791   1.467       .  S
C751        H754   1.084       .  S
C755        C792   1.458       .  S
C755        N773   1.351       .  A
N756        N773   1.326       .  A
N756        N778   1.321       .  A
N756       Co793   2.095       .  S
C757        C795   1.459       .  S
C757        H802   1.081       .  S
C757        N782   1.344       .  A
H758        C799   1.081       .  S
C759        C763   1.457       .  S
C759        H788   1.081       .  S
C759        N783   1.342       .  A
Co760       N778   2.091       .  S
Co760       N768   2.091       .  S
Co760       N800   2.097       .  S
Co760       N776   2.080       .  S
Co760      Cl804   2.456       .  S
N761        C799   1.345       .  A
N761        N768   1.321       .  A
N761       Co762   2.096       .  S
Co762       N765   2.091       .  S
Co762       N782   2.097       .  S
Co762       N769   2.082       .  S
Co762      Cl804   2.456       .  S
C763        N801   1.350       .  A
N764        N771   1.322       .  A
N764        N794   1.326       .  A
N764       Co797   2.091       .  S
N765        N783   1.321       .  A
N765        N801   1.325       .  A
N766        C795   1.347       .  A
N766        N776   1.325       .  A
H767        C792   1.081       .  S
N768        N789   1.325       .  A
N769        N787   1.321       .  A
N769        N774   1.325       .  A
C770        C798   1.459       .  S
C770        N774   1.347       .  A
N771        C786   1.342       .  A
N771       Co793   2.094       .  S
C772        C775   1.459       .  S
C772        H806   1.081       .  S
C772        N800   1.343       .  A
C775        N796   1.348       .  A
N776        N782   1.321       .  A
N777        C803   1.345       .  A
N777        N779   1.321       .  A
N777       Co793   2.096       .  S
N778        C792   1.343       .  A
N779        N807   1.323       .  A
N779       Co797   2.077       .  S
H780        C803   1.081       .  S
H781        C798   1.081       .  S
N783       Co797   2.086       .  S
N784        N796   1.326       .  A
N784        N800   1.321       .  A
N784       Co793   2.085       .  S
C785        C799   1.461       .  S
C785        N789   1.350       .  A
C786        C805   1.459       .  S
C786        H790   1.081       .  S
N787        C798   1.344       .  A
N787       Co797   2.097       .  S
C791        C803   1.459       .  S
C791        N807   1.346       .  A
Co793      Cl804   2.456       .  S
N794        C805   1.349       .  A
Co797      Cl804   2.456       .  S
C808        C809   1.408       .  A
C809        C810   1.402       .  A
C809        H818   1.083       .  S
C810        C811   1.413       .  A
C810        S814   1.804       .  S
C812        C982   1.404       .  A
C812        C813   1.401       .  A
C812        H819   1.084       .  S
C813        C979   1.418       .  A
C813        S815   1.804       .  S
S814        H817   1.406       .  S
S815        H816   1.407       .  S
C820        C821   1.404       .  A
C821        C822   1.403       .  A
C821        H830   1.084       .  S
C822        C823   1.422       .  A
C822        S826   1.805       .  S
C824        C994   1.410       .  A
C824        C825   1.404       .  A
C824        H831   1.083       .  S
C825        C991   1.413       .  A
C825        S827   1.804       .  S
S826        H829   1.407       .  S
S827        H828   1.406       .  S
C832       C1004   1.403       .  A
C832        C837   1.413       .  A
C833        C834   1.400       .  A
C833        H842   1.084       .  S
C834        C835   1.419       .  A
C834        S838   1.804       .  S
C836       C1006   1.408       .  A
C836        C837   1.401       .  A
C836        H843   1.083       .  S
C837        S839   1.805       .  S
S838        H841   1.407       .  S
S839        H840   1.406       .  S
C844        C845   1.405       .  A
C844       C1020   1.414       .  A
C845        C846   1.402       .  A
C845        H854   1.084       .  S
C846       C1018   1.421       .  A
C846        S850   1.805       .  S
C847        C848   1.413       .  A
C848        C849   1.403       .  A
C848        H855   1.082       .  S
C849        S851   1.806       .  S
S850        H853   1.408       .  S
S851        H852   1.406       .  S
C856        C861   1.413       .  A
C856       C1018   1.510       .  S
C857        C858   1.404       .  A
C857        H862   1.081       .  S
C858        C859   1.399       .  A
C858        C956   1.473       .  S
C859        H863   1.084       .  S
C860        C861   1.404       .  A
C860        C966   1.469       .  S
C861        H864   1.082       .  S
C865        C870   1.409       .  A
C865       C1006   1.495       .  S
C866        C867   1.403       .  A
C866        H871   1.084       .  S
C867        C868   1.401       .  A
C867        C934   1.468       .  S
C868        H872   1.084       .  S
C869        C870   1.403       .  A
C869        C941   1.469       .  S
C870        H873   1.083       .  S
C874        C879   1.411       .  A
C874        C994   1.504       .  S
C875        C876   1.406       .  A
C875        H880   1.083       .  S
C876        C926   1.473       .  S
C877        C878   1.400       .  A
C877        H881   1.084       .  S
C878        C879   1.403       .  A
C878        C946   1.471       .  S
C879        H882   1.083       .  S
N883        H915   1.036       .  S
N883       C1914   1.356   1_454  A
N883        C887   1.356   1_554  A
N884        C892   1.351       .  A
N885        H916   1.038       .  S
N885       C1916   1.354   1_454  A
N885        C889   1.356   1_554  A
N886        C894   1.356   1_556  A
C887        C895   1.384       .  A
C887        C903   1.419   1_556  A
C888        C904   1.424       .  A
C888        C896   1.390       .  A
C888       N1909   1.356   1_556  A
C889        C897   1.386       .  A
C889        C906   1.418   1_556  A
C890        C905   1.418       .  A
C890        C898   1.387       .  A
C890       N1911   1.354   1_556  A
C891        C903   1.413       .  A
C892        C906   1.414       .  A
C892        C900   1.386       .  A
C893        C904   1.425   1_554  A
C894        C902   1.385       .  A
C894        C905   1.421   1_554  A
C895       C1922   1.371   1_455  A
C895        H907   1.082       .  S
C896       C1921   1.371       .  A
C896        H908   1.079       .  S
C897       C1924   1.375       .  A
C897        H909   1.082       .  S
C898       C1923   1.375       .  A
C898        H910   1.082       .  S
C899        C900   1.374       .  A
C900        H912   1.082       .  S
C901        C902   1.374       .  A
C902        H914   1.082       .  S
C903       C1003   1.494       .  S
C904       C1015   1.503       .  S
C917        C922   1.407       .  A
C917        C979   1.494       .  S
C918        C919   1.405       .  A
C918        H923   1.083       .  S
C919        C976   1.472       .  S
C920        C921   1.400       .  A
C920        H924   1.084       .  S
C921        C922   1.401       .  A
C921        C962   1.467       .  S
C922        H925   1.084       .  S
C926        C963   1.458       .  S
C926        N944   1.351       .  A
N927        N944   1.326       .  A
N927        N949   1.321       .  A
N927       Co964   2.095       .  S
C928        C966   1.459       .  S
C928        H973   1.081       .  S
C928        N953   1.344       .  A
H929        C970   1.081       .  S
C930        C934   1.457       .  S
C930        H959   1.081       .  S
C930        N954   1.342       .  A
Co931       N949   2.091       .  S
Co931       N939   2.091       .  S
Co931       N971   2.097       .  S
Co931       N947   2.080       .  S
Co931      Cl975   2.456       .  S
N932        C970   1.345       .  A
N932        N939   1.321       .  A
N932       Co933   2.096       .  S
Co933       N936   2.091       .  S
Co933       N953   2.097       .  S
Co933       N940   2.082       .  S
Co933      Cl975   2.456       .  S
C934        N972   1.350       .  A
N935        N942   1.322       .  A
N935        N965   1.326       .  A
N935       Co968   2.091       .  S
N936        N954   1.321       .  A
N936        N972   1.325       .  A
N937        C966   1.347       .  A
N937        N947   1.325       .  A
H938        C963   1.081       .  S
N939        N960   1.325       .  A
N940        N958   1.321       .  A
N940        N945   1.325       .  A
C941        C969   1.459       .  S
C941        N945   1.347       .  A
N942        C957   1.342       .  A
N942       Co964   2.094       .  S
C943        C946   1.459       .  S
C943        H977   1.081       .  S
C943        N971   1.343       .  A
C946        N967   1.348       .  A
N947        N953   1.321       .  A
N948        C974   1.345       .  A
N948        N950   1.321       .  A
N948       Co964   2.096       .  S
N949        C963   1.343       .  A
N950        N978   1.323       .  A
N950       Co968   2.077       .  S
H951        C974   1.081       .  S
H952        C969   1.081       .  S
N954       Co968   2.086       .  S
N955        N967   1.326       .  A
N955        N971   1.321       .  A
N955       Co964   2.085       .  S
C956        C970   1.460       .  S
C956        N960   1.350       .  A
C957        C976   1.459       .  S
C957        H961   1.081       .  S
N958        C969   1.344       .  A
N958       Co968   2.097       .  S
C962        C974   1.459       .  S
C962        N978   1.346       .  A
Co964      Cl975   2.456       .  S
N965        C976   1.349       .  A
Co968      Cl975   2.456       .  S
C979        C980   1.408       .  A
C980        C981   1.402       .  A
C980        H989   1.083       .  S
C981        C982   1.413       .  A
C981        S985   1.804       .  S
C983        C984   1.401       .  A
C983        H990   1.084       .  S
C984        S986   1.804       .  S
S985        H988   1.406       .  S
S986        H987   1.407       .  S
C991        C992   1.404       .  A
C992        C993   1.403       .  A
C992       H1001   1.084       .  S
C993        C994   1.422       .  A
C993        S997   1.805       .  S
C995        C996   1.404       .  A
C995       H1002   1.083       .  S
C996        S998   1.804       .  S
S997       H1000   1.407       .  S
S998        H999   1.406       .  S
C1003      C1008   1.413   1_554  A
C1004      C1005   1.400       .  A
C1004      H1013   1.084       .  S
C1005      C1006   1.419       .  A
C1005      S1009   1.804       .  S
C1007      C1008   1.401       .  A
C1007      H1014   1.083       .  S
C1008      S1010   1.805       .  S
S1009      H1012   1.407       .  S
S1010      H1011   1.406       .  S
C1015      C1016   1.405       .  A
C1016      C1017   1.402       .  A
C1016      H1025   1.084       .  S
C1017      S1021   1.805       .  S
C1018      C1019   1.413       .  A
C1019      C1020   1.403       .  A
C1019      H1026   1.082       .  S
C1020      S1022   1.806       .  S
S1021      H1024   1.408       .  S
S1022      H1023   1.406       .  S
C1027      C1370   1.414       .  A
C1027      C1032   1.413   1_556  A
C1027      C1189   1.510       .  S
C1028      C1198   1.414       .  A
C1028      C1029   1.404       .  A
C1028      H1033   1.081       .  S
C1029      C1030   1.399       .  A
C1029      C1127   1.473       .  S
C1030      C1202   1.400       .  A
C1030      H1034   1.084       .  S
C1031      C1372   1.400   1_554  A
C1031      C1032   1.404       .  A
C1031      C1137   1.470       .  S
C1032      H1035   1.082       .  S
C1036      C1379   1.409       .  A
C1036      C1041   1.409   1_556  A
C1036      C1177   1.495   1_556  S
C1037      C1207   1.409       .  A
C1037      C1038   1.403       .  A
C1037      H1042   1.084       .  S
C1038      C1039   1.401       .  A
C1038      C1105   1.468       .  S
C1039      C1211   1.400       .  A
C1039      H1043   1.084       .  S
C1040      C1381   1.400   1_554  A
C1040      C1041   1.403       .  A
C1040      C1112   1.469       .  S
C1041      H1044   1.083       .  S
C1045      C1388   1.413       .  A
C1045      C1050   1.411   1_556  A
C1045      C1165   1.504       .  S
C1046      C1216   1.413       .  A
C1046      C1047   1.406       .  A
C1046      H1051   1.083       .  S
C1047      C1219   1.401       .  A
C1047      C1097   1.473       .  S
C1048      C1389   1.401       .  A
C1048      C1049   1.400   1_556  A
C1048      H1052   1.084       .  S
C1049      C1050   1.403       .  A
C1049      C1117   1.471       .  S
C1050      H1053   1.083       .  S
N1054      H1086   1.036       .  S
N1054      C1058   1.356       .  A
N1055      C1575   1.351   1_545  A
N1055      C1063   1.351       .  A
N1056      H1087   1.039       .  S
N1056      C1060   1.356       .  A
N1057      C1577   1.356   1_545  A
N1057      C1065   1.356       .  A
C1058      C1066   1.384       .  A
C1058      C1074   1.419       .  A
C1059      C1075   1.424       .  A
C1059      C1067   1.390       .  A
C1060      C1068   1.386       .  A
C1060      C1077   1.418       .  A
C1061      C1076   1.418       .  A
C1061      C1069   1.387   1_655  A
C1062      C1074   1.413       .  A
C1062      C1583   1.386       .  A
C1062      N1568   1.351       .  A
C1063      C1077   1.414       .  A
C1063      C1071   1.386       .  A
C1064      C1585   1.387       .  A
C1064      C1075   1.425       .  A
C1064      N1570   1.356       .  A
C1065      C1073   1.385       .  A
C1065      C1076   1.421       .  A
C1066      H1078   1.082       .  S
C1067      H1079   1.079       .  S
C1068      H1080   1.082       .  S
C1069      H1081   1.082   1_455  S
C1070      C1575   1.386       .  A
C1070      C1071   1.374   1_565  A
C1070      H1595   1.082       .  S
C1071      H1083   1.082       .  S
C1072      C1577   1.387   1_545  A
C1072      C1073   1.374       .  A
C1072      H1597   1.081   1_545  S
C1073      H1085   1.082       .  S
C1074      C1174   1.494       .  S
C1075      C1186   1.503       .  S
C1076      C1333   1.500       .  S
C1077      C1324   1.496       .  S
H1082      C1583   1.082       .  S
H1084      C1585   1.081       .  S
C1088      C1431   1.410       .  A
C1088      C1093   1.407   1_556  A
C1088      C1150   1.495       .  S
C1089      C1259   1.410       .  A
C1089      C1090   1.405       .  A
C1089      H1094   1.083       .  S
C1090      C1262   1.402       .  A
C1090      C1147   1.472       .  S
C1091      C1432   1.402       .  A
C1091      C1092   1.400   1_556  A
C1091      H1095   1.084       .  S
C1092      C1093   1.401       .  A
C1092      C1133   1.467       .  S
C1093      H1096   1.084       .  S
C1097      C1134   1.458       .  S
C1097      N1115   1.351       .  A
N1098      N1115   1.326       .  A
N1098      N1120   1.321       .  A
N1098     Co1135   2.095       .  S
C1099      C1137   1.459       .  S
C1099      H1144   1.081       .  S
C1099      N1124   1.344       .  A
H1100      C1141   1.081       .  S
C1101      C1105   1.457       .  S
C1101      H1130   1.081       .  S
C1101      N1125   1.342       .  A
Co1102     N1120   2.091       .  S
Co1102     N1110   2.091       .  S
Co1102     N1142   2.097       .  S
Co1102     N1118   2.080       .  S
Co1102    Cl1146   2.456       .  S
N1103      C1141   1.345       .  A
N1103      N1110   1.321       .  A
N1103     Co1104   2.096       .  S
Co1104     N1107   2.091       .  S
Co1104     N1124   2.097       .  S
Co1104     N1111   2.082       .  S
Co1104    Cl1146   2.456       .  S
C1105      N1143   1.350       .  A
N1106      N1113   1.322       .  A
N1106      N1136   1.326       .  A
N1106     Co1139   2.091       .  S
N1107      N1125   1.321       .  A
N1107      N1143   1.325       .  A
N1108      C1137   1.347       .  A
N1108      N1118   1.325       .  A
H1109      C1134   1.081       .  S
N1110      N1131   1.325       .  A
N1111      N1129   1.321       .  A
N1111      N1116   1.325       .  A
C1112      C1140   1.459       .  S
C1112      N1116   1.347       .  A
N1113      C1128   1.342       .  A
N1113     Co1135   2.094       .  S
C1114      C1117   1.459       .  S
C1114      H1148   1.081       .  S
C1114      N1142   1.343       .  A
C1117      N1138   1.348       .  A
N1118      N1124   1.321       .  A
N1119      C1145   1.345       .  A
N1119      N1121   1.321       .  A
N1119     Co1135   2.096       .  S
N1120      C1134   1.343       .  A
N1121      N1149   1.323       .  A
N1121     Co1139   2.077       .  S
H1122      C1145   1.081       .  S
H1123      C1140   1.081       .  S
N1125     Co1139   2.086       .  S
N1126      N1138   1.326       .  A
N1126      N1142   1.321       .  A
N1126     Co1135   2.085       .  S
C1127      C1141   1.460       .  S
C1127      N1131   1.350       .  A
C1128      C1147   1.459       .  S
C1128      H1132   1.081       .  S
N1129      C1140   1.344       .  A
N1129     Co1139   2.097       .  S
C1133      C1145   1.459       .  S
C1133      N1149   1.346       .  A
Co1135    Cl1146   2.456       .  S
N1136      C1147   1.349       .  A
Co1139    Cl1146   2.456       .  S
C1150      C1151   1.408   1_556  A
C1150      C1497   1.418       .  A
C1151      C1152   1.402       .  A
C1151      H1160   1.083       .  S
C1152      C1153   1.413       .  A
C1152      S1156   1.804       .  S
C1153      C1496   1.404   1_554  A
C1153      C1419   1.496       .  S
C1154      C1324   1.404       .  A
C1154      C1155   1.401       .  A
C1154      H1161   1.084       .  S
C1155      C1321   1.418       .  A
C1155      S1157   1.804       .  S
S1156      H1159   1.406       .  S
S1157      H1158   1.407       .  S
C1162      C1163   1.404   1_556  A
C1162      C1509   1.413       .  A
C1162      C1418   1.500       .  S
C1163      C1164   1.403       .  A
C1163      H1172   1.084       .  S
C1164      C1165   1.422   1_554  A
C1164      S1168   1.805       .  S
C1165      C1508   1.410       .  A
C1166      C1336   1.410       .  A
C1166      C1167   1.404       .  A
C1166      H1173   1.083       .  S
C1167      C1333   1.413       .  A
C1167      S1169   1.804       .  S
S1168      H1171   1.407       .  S
S1169      H1170   1.406       .  S
C1174      C1346   1.403       .  A
C1174      C1179   1.413       .  A
C1175      C1516   1.403       .  A
C1175      C1176   1.400       .  A
C1175      H1184   1.084       .  S
C1176      C1177   1.419       .  A
C1176      S1180   1.804       .  S
C1177      C1520   1.408   1_554  A
C1178      C1348   1.408       .  A
C1178      C1179   1.401       .  A
C1178      H1185   1.083       .  S
C1179      S1181   1.805       .  S
S1180      H1183   1.407       .  S
S1181      H1182   1.406       .  S
C1186      C1187   1.405       .  A
C1186      C1362   1.414       .  A
C1187      C1188   1.402       .  A
C1187      H1196   1.084       .  S
C1188      C1360   1.421       .  A
C1188      S1192   1.805       .  S
C1189      C1530   1.421       .  A
C1189      C1190   1.413   1_556  A
C1190      C1191   1.403       .  A
C1190      H1197   1.082       .  S
C1191      C1528   1.414   1_554  A
C1191      S1193   1.806       .  S
S1192      H1195   1.408       .  S
S1193      H1194   1.406       .  S
C1198      C1203   1.413       .  A
C1198      C1360   1.510       .  S
C1199      C1369   1.414       .  A
C1199      C1200   1.404       .  A
C1199      H1204   1.081       .  S
C1200      C1201   1.399       .  A
C1200      C1298   1.473       .  S
C1201      C1373   1.400       .  A
C1201      H1205   1.084       .  S
C1202      C1203   1.404       .  A
C1202      C1308   1.469       .  S
C1203      H1206   1.082       .  S
C1207      C1212   1.409       .  A
C1207      C1348   1.495       .  S
C1208      C1378   1.409       .  A
C1208      C1209   1.403       .  A
C1208      H1213   1.084       .  S
C1209      C1210   1.401       .  A
C1209      C1276   1.468       .  S
C1210      C1382   1.400       .  A
C1210      H1214   1.084       .  S
C1211      C1212   1.403       .  A
C1211      C1283   1.469       .  S
C1212      H1215   1.083       .  S
C1216      C1221   1.411       .  A
C1216      C1336   1.504       .  S
C1217      C1387   1.413       .  A
C1217      C1218   1.406       .  A
C1217      H1222   1.083       .  S
C1218      C1390   1.401       .  A
C1218      C1268   1.473       .  S
C1219      C1220   1.400       .  A
C1219      H1223   1.084       .  S
C1220      C1221   1.403       .  A
C1220      C1288   1.471       .  S
C1221      H1224   1.083       .  S
N1225      H1257   1.036       .  S
N1225      C1229   1.356       .  A
N1226      C1746   1.351   1_545  A
N1226      C1234   1.351       .  A
N1227      H1258   1.038       .  S
N1227      C1231   1.356       .  A
N1228      C1748   1.356   1_545  A
N1228      C1236   1.356       .  A
C1229      C1237   1.384       .  A
C1229      C1245   1.419       .  A
C1230      C1246   1.424       .  A
C1230      C1238   1.390       .  A
C1231      C1239   1.386       .  A
C1231      C1248   1.418       .  A
C1232      C1247   1.418       .  A
C1232      C1240   1.387   1_655  A
C1233      C1245   1.413       .  A
C1233      C1754   1.386       .  A
C1233      N1739   1.351       .  A
C1234      C1248   1.413       .  A
C1234      C1242   1.386       .  A
C1235      C1756   1.387       .  A
C1235      C1246   1.425       .  A
C1235      N1741   1.356       .  A
C1236      C1244   1.385       .  A
C1236      C1247   1.421       .  A
C1237      H1249   1.082       .  S
C1238      H1250   1.079       .  S
C1239      H1251   1.082       .  S
C1240      H1252   1.082   1_455  S
C1241      C1746   1.386       .  A
C1241      C1242   1.374   1_565  A
C1241      H1766   1.082       .  S
C1242      H1254   1.082       .  S
C1243      C1748   1.387   1_545  A
C1243      C1244   1.374       .  A
C1243      H1768   1.081   1_545  S
C1244      H1256   1.082       .  S
C1245      C1345   1.494       .  S
C1246      C1357   1.503       .  S
C1247      C1504   1.500       .  S
C1248      C1495   1.496       .  S
H1253      C1754   1.082       .  S
H1255      C1756   1.081       .  S
C1259      C1264   1.407       .  A
C1259      C1321   1.494       .  S
C1260      C1430   1.410       .  A
C1260      C1261   1.405       .  A
C1260      H1265   1.083       .  S
C1261      C1433   1.402       .  A
C1261      C1318   1.472       .  S
C1262      C1263   1.400       .  A
C1262      H1266   1.084       .  S
C1263      C1264   1.401       .  A
C1263      C1304   1.467       .  S
C1264      H1267   1.084       .  S
C1268      C1305   1.458       .  S
C1268      N1286   1.351       .  A
N1269      N1286   1.326       .  A
N1269      N1291   1.321       .  A
N1269     Co1306   2.095       .  S
C1270      C1308   1.459       .  S
C1270      H1315   1.081       .  S
C1270      N1295   1.344       .  A
H1271      C1312   1.081       .  S
C1272      C1276   1.457       .  S
C1272      H1301   1.081       .  S
C1272      N1296   1.342       .  A
Co1273     N1291   2.091       .  S
Co1273     N1281   2.091       .  S
Co1273     N1313   2.097       .  S
Co1273     N1289   2.080       .  S
Co1273    Cl1317   2.456       .  S
N1274      C1312   1.345       .  A
N1274      N1281   1.321       .  A
N1274     Co1275   2.096       .  S
Co1275     N1278   2.091       .  S
Co1275     N1295   2.097       .  S
Co1275     N1282   2.082       .  S
Co1275    Cl1317   2.456       .  S
C1276      N1314   1.350       .  A
N1277      N1284   1.322       .  A
N1277      N1307   1.326       .  A
N1277     Co1310   2.091       .  S
N1278      N1296   1.321       .  A
N1278      N1314   1.325       .  A
N1279      C1308   1.347       .  A
N1279      N1289   1.325       .  A
H1280      C1305   1.081       .  S
N1281      N1302   1.325       .  A
N1282      N1300   1.321       .  A
N1282      N1287   1.325       .  A
C1283      C1311   1.459       .  S
C1283      N1287   1.347       .  A
N1284      C1299   1.342       .  A
N1284     Co1306   2.095       .  S
C1285      C1288   1.459       .  S
C1285      H1319   1.081       .  S
C1285      N1313   1.343       .  A
C1288      N1309   1.348       .  A
N1289      N1295   1.321       .  A
N1290      C1316   1.345       .  A
N1290      N1292   1.321       .  A
N1290     Co1306   2.096       .  S
N1291      C1305   1.343       .  A
N1292      N1320   1.323       .  A
N1292     Co1310   2.077       .  S
H1293      C1316   1.081       .  S
H1294      C1311   1.081       .  S
N1296     Co1310   2.086       .  S
N1297      N1309   1.326       .  A
N1297      N1313   1.321       .  A
N1297     Co1306   2.085       .  S
C1298      C1312   1.460       .  S
C1298      N1302   1.350       .  A
C1299      C1318   1.459       .  S
C1299      H1303   1.081       .  S
N1300      C1311   1.344       .  A
N1300     Co1310   2.097       .  S
C1304      C1316   1.459       .  S
C1304      N1320   1.346       .  A
Co1306    Cl1317   2.456       .  S
N1307      C1318   1.349       .  A
Co1310    Cl1317   2.456       .  S
C1321      C1322   1.408       .  A
C1322      C1323   1.402       .  A
C1322      H1331   1.083       .  S
C1323      C1324   1.413       .  A
C1323      S1327   1.804       .  S
C1325      C1495   1.404       .  A
C1325      C1326   1.401       .  A
C1325      H1332   1.084       .  S
C1326      C1492   1.418       .  A
C1326      S1328   1.804       .  S
S1327      H1330   1.406       .  S
S1328      H1329   1.407       .  S
C1333      C1334   1.404       .  A
C1334      C1335   1.403       .  A
C1334      H1343   1.084       .  S
C1335      C1336   1.422       .  A
C1335      S1339   1.805       .  S
C1337      C1507   1.410       .  A
C1337      C1338   1.404       .  A
C1337      H1344   1.083       .  S
C1338      C1504   1.413       .  A
C1338      S1340   1.804       .  S
S1339      H1342   1.407       .  S
S1340      H1341   1.406       .  S
C1345      C1517   1.403       .  A
C1345      C1350   1.413       .  A
C1346      C1347   1.400       .  A
C1346      H1355   1.084       .  S
C1347      C1348   1.419       .  A
C1347      S1351   1.804       .  S
C1349      C1519   1.408       .  A
C1349      C1350   1.401       .  A
C1349      H1356   1.083       .  S
C1350      S1352   1.805       .  S
S1351      H1354   1.407       .  S
S1352      H1353   1.406       .  S
C1357      C1358   1.405       .  A
C1357      C1533   1.414       .  A
C1358      C1359   1.402       .  A
C1358      H1367   1.084       .  S
C1359      C1531   1.421       .  A
C1359      S1363   1.805       .  S
C1360      C1361   1.413       .  A
C1361      C1362   1.403       .  A
C1361      H1368   1.082       .  S
C1362      S1364   1.806       .  S
S1363      H1366   1.408       .  S
S1364      H1365   1.406       .  S
C1369      C1374   1.413       .  A
C1369      C1531   1.510       .  S
C1370      C1371   1.404       .  A
C1370      H1375   1.081       .  S
C1371      C1372   1.399       .  A
C1371      C1469   1.473       .  S
C1372      H1376   1.084       .  S
C1373      C1374   1.404       .  A
C1373      C1479   1.470       .  S
C1374      H1377   1.082       .  S
C1378      C1383   1.409       .  A
C1378      C1519   1.495       .  S
C1379      C1380   1.403       .  A
C1379      H1384   1.084       .  S
C1380      C1381   1.401       .  A
C1380      C1447   1.468       .  S
C1381      H1385   1.084       .  S
C1382      C1383   1.403       .  A
C1382      C1454   1.469       .  S
C1383      H1386   1.083       .  S
C1387      C1392   1.411       .  A
C1387      C1507   1.504       .  S
C1388      C1389   1.406       .  A
C1388      H1393   1.083       .  S
C1389      C1439   1.473       .  S
C1390      C1391   1.400       .  A
C1390      H1394   1.084       .  S
C1391      C1392   1.403       .  A
C1391      C1459   1.471       .  S
C1392      H1395   1.083       .  S
N1396      H1428   1.036       .  S
N1396      C1400   1.356   1_554  A
N1397      C1917   1.351   1_545  A
N1397      C1405   1.351       .  A
N1398      H1429   1.038       .  S
N1398      C1402   1.356   1_554  A
N1399      C1919   1.356   1_546  A
N1399      C1407   1.356   1_556  A
C1400      C1408   1.384       .  A
C1400      C1416   1.419   1_556  A
C1401      C1417   1.424       .  A
C1401      C1409   1.390       .  A
C1402      C1410   1.386       .  A
C1402      C1419   1.418   1_556  A
C1403      C1418   1.418       .  A
C1403      C1411   1.387   1_655  A
C1404      C1416   1.413       .  A
C1404      C1925   1.386       .  A
C1404      N1910   1.351       .  A
C1405      C1419   1.414       .  A
C1405      C1413   1.386       .  A
C1406      C1927   1.387       .  A
C1406      C1417   1.425   1_554  A
C1406      N1912   1.356   1_554  A
C1407      C1415   1.385       .  A
C1407      C1418   1.421   1_554  A
C1408      H1420   1.082       .  S
C1409      H1421   1.079       .  S
C1410      H1422   1.082       .  S
C1411      H1423   1.082   1_455  S
C1412      C1917   1.386       .  A
C1412      C1413   1.374   1_565  A
C1412      H1937   1.082       .  S
C1413      H1425   1.082       .  S
C1414      C1919   1.387   1_545  A
C1414      C1415   1.374       .  A
C1414      H1939   1.081   1_545  S
C1415      H1427   1.082       .  S
C1416      C1516   1.494       .  S
C1417      C1528   1.503       .  S
H1424      C1925   1.082       .  S
H1426      C1927   1.081       .  S
C1430      C1435   1.407       .  A
C1430      C1492   1.494       .  S
C1431      C1432   1.405       .  A
C1431      H1436   1.083       .  S
C1432      C1489   1.472       .  S
C1433      C1434   1.400       .  A
C1433      H1437   1.084       .  S
C1434      C1435   1.401       .  A
C1434      C1475   1.467       .  S
C1435      H1438   1.084       .  S
C1439      C1476   1.458       .  S
C1439      N1457   1.351       .  A
N1440      N1457   1.326       .  A
N1440      N1462   1.321       .  A
N1440     Co1477   2.095       .  S
C1441      C1479   1.459       .  S
C1441      H1486   1.081       .  S
C1441      N1466   1.344       .  A
H1442      C1483   1.081       .  S
C1443      C1447   1.457       .  S
C1443      H1472   1.081       .  S
C1443      N1467   1.342       .  A
Co1444     N1462   2.091       .  S
Co1444     N1452   2.091       .  S
Co1444     N1484   2.097       .  S
Co1444     N1460   2.080       .  S
Co1444    Cl1488   2.456       .  S
N1445      C1483   1.345       .  A
N1445      N1452   1.321       .  A
N1445     Co1446   2.096       .  S
Co1446     N1449   2.091       .  S
Co1446     N1466   2.097       .  S
Co1446     N1453   2.082       .  S
Co1446    Cl1488   2.456       .  S
C1447      N1485   1.350       .  A
N1448      N1455   1.322       .  A
N1448      N1478   1.326       .  A
N1448     Co1481   2.091       .  S
N1449      N1467   1.321       .  A
N1449      N1485   1.325       .  A
N1450      C1479   1.347       .  A
N1450      N1460   1.325       .  A
H1451      C1476   1.081       .  S
N1452      N1473   1.325       .  A
N1453      N1471   1.321       .  A
N1453      N1458   1.325       .  A
C1454      C1482   1.459       .  S
C1454      N1458   1.347       .  A
N1455      C1470   1.342       .  A
N1455     Co1477   2.095       .  S
C1456      C1459   1.459       .  S
C1456      H1490   1.081       .  S
C1456      N1484   1.343       .  A
C1459      N1480   1.348       .  A
N1460      N1466   1.321       .  A
N1461      C1487   1.345       .  A
N1461      N1463   1.321       .  A
N1461     Co1477   2.096       .  S
N1462      C1476   1.343       .  A
N1463      N1491   1.323       .  A
N1463     Co1481   2.077       .  S
H1464      C1487   1.081       .  S
H1465      C1482   1.081       .  S
N1467     Co1481   2.086       .  S
N1468      N1480   1.326       .  A
N1468      N1484   1.321       .  A
N1468     Co1477   2.085       .  S
C1469      C1483   1.460       .  S
C1469      N1473   1.350       .  A
C1470      C1489   1.459       .  S
C1470      H1474   1.081       .  S
N1471      C1482   1.344       .  A
N1471     Co1481   2.097       .  S
C1475      C1487   1.459       .  S
C1475      N1491   1.346       .  A
Co1477    Cl1488   2.456       .  S
N1478      C1489   1.349       .  A
Co1481    Cl1488   2.456       .  S
C1492      C1493   1.408       .  A
C1493      C1494   1.402       .  A
C1493      H1502   1.083       .  S
C1494      C1495   1.413       .  A
C1494      S1498   1.804       .  S
C1496      C1497   1.401       .  A
C1496      H1503   1.084       .  S
C1497      S1499   1.804       .  S
S1498      H1501   1.406       .  S
S1499      H1500   1.407       .  S
C1504      C1505   1.404       .  A
C1505      C1506   1.403       .  A
C1505      H1514   1.084       .  S
C1506      C1507   1.422       .  A
C1506      S1510   1.805       .  S
C1508      C1509   1.404       .  A
C1508      H1515   1.083       .  S
C1509      S1511   1.804       .  S
S1510      H1513   1.407       .  S
S1511      H1512   1.406       .  S
C1516      C1521   1.413   1_554  A
C1517      C1518   1.400       .  A
C1517      H1526   1.084       .  S
C1518      C1519   1.419       .  A
C1518      S1522   1.804       .  S
C1520      C1521   1.401       .  A
C1520      H1527   1.083       .  S
C1521      S1523   1.805       .  S
S1522      H1525   1.407       .  S
S1523      H1524   1.406       .  S
C1528      C1529   1.405       .  A
C1529      C1530   1.402       .  A
C1529      H1538   1.084       .  S
C1530      S1534   1.805       .  S
C1531      C1532   1.413       .  A
C1532      C1533   1.403       .  A
C1532      H1539   1.082       .  S
C1533      S1535   1.806       .  S
S1534      H1537   1.408       .  S
S1535      H1536   1.406       .  S
C1540      C1883   1.414       .  A
C1540      C1545   1.413   1_556  A
C1540      C1702   1.510       .  S
C1541      C1711   1.414       .  A
C1541      C1542   1.404       .  A
C1541      H1546   1.081       .  S
C1542      C1543   1.399       .  A
C1542      C1640   1.472       .  S
C1543      C1715   1.400       .  A
C1543      H1547   1.084       .  S
C1544      C1885   1.400   1_554  A
C1544      C1545   1.404       .  A
C1544      C1650   1.469       .  S
C1545      H1548   1.082       .  S
C1549      C1892   1.409       .  A
C1549      C1554   1.409   1_556  A
C1549      C1690   1.495   1_556  S
C1550      C1720   1.409       .  A
C1550      C1551   1.403       .  A
C1550      H1555   1.084       .  S
C1551      C1552   1.401       .  A
C1551      C1618   1.468       .  S
C1552      C1724   1.400       .  A
C1552      H1556   1.084       .  S
C1553      C1894   1.400   1_554  A
C1553      C1554   1.403       .  A
C1553      C1625   1.469       .  S
C1554      H1557   1.083       .  S
C1558      C1901   1.413       .  A
C1558      C1563   1.411   1_556  A
C1558      C1678   1.504       .  S
C1559      C1729   1.413       .  A
C1559      C1560   1.406       .  A
C1559      H1564   1.083       .  S
C1560      C1732   1.401       .  A
C1560      C1610   1.473       .  S
C1561      C1902   1.401       .  A
C1561      C1562   1.400   1_556  A
C1561      H1565   1.084       .  S
C1562      C1563   1.403       .  A
C1562      C1630   1.471       .  S
C1563      H1566   1.083       .  S
N1567      H1599   1.037       .  S
N1567      C1571   1.356       .  A
N1568      C1576   1.351       .  A
N1569      H1600   1.038       .  S
N1569      C1573   1.356       .  A
N1570      C1578   1.356       .  A
C1571      C1579   1.384       .  A
C1571      C1587   1.419       .  A
C1572      C1588   1.424       .  A
C1572      C1580   1.390       .  A
C1573      C1581   1.386       .  A
C1573      C1590   1.418       .  A
C1574      C1589   1.418       .  A
C1574      C1582   1.387   1_655  A
C1575      C1587   1.413       .  A
C1576      C1590   1.413       .  A
C1576      C1584   1.386       .  A
C1577      C1588   1.425       .  A
C1578      C1586   1.385       .  A
C1578      C1589   1.421       .  A
C1579      H1591   1.082       .  S
C1580      H1592   1.079       .  S
C1581      H1593   1.082       .  S
C1582      H1594   1.082   1_455  S
C1583      C1584   1.374       .  A
C1584      H1596   1.082       .  S
C1585      C1586   1.374       .  A
C1586      H1598   1.082       .  S
C1587      C1687   1.494       .  S
C1588      C1699   1.503       .  S
C1589      C1846   1.500       .  S
C1590      C1837   1.496       .  S
C1601      C1944   1.410       .  A
C1601      C1606   1.407   1_556  A
C1601      C1663   1.494       .  S
C1602      C1772   1.410       .  A
C1602      C1603   1.405       .  A
C1602      H1607   1.083       .  S
C1603      C1775   1.402       .  A
C1603      C1660   1.472       .  S
C1604      C1945   1.402       .  A
C1604      C1605   1.400   1_556  A
C1604      H1608   1.084       .  S
C1605      C1606   1.401       .  A
C1605      C1646   1.467       .  S
C1606      H1609   1.084       .  S
C1610      C1647   1.458       .  S
C1610      N1628   1.351       .  A
N1611      N1628   1.326       .  A
N1611      N1633   1.321       .  A
N1611     Co1648   2.095       .  S
C1612      C1650   1.459       .  S
C1612      H1657   1.081       .  S
C1612      N1637   1.344       .  A
H1613      C1654   1.081       .  S
C1614      C1618   1.457       .  S
C1614      H1643   1.081       .  S
C1614      N1638   1.342       .  A
Co1615     N1633   2.091       .  S
Co1615     N1623   2.091       .  S
Co1615     N1655   2.097       .  S
Co1615     N1631   2.080       .  S
Co1615    Cl1659   2.456       .  S
N1616      C1654   1.345       .  A
N1616      N1623   1.321       .  A
N1616     Co1617   2.096       .  S
Co1617     N1620   2.091       .  S
Co1617     N1637   2.097       .  S
Co1617     N1624   2.082       .  S
Co1617    Cl1659   2.456       .  S
C1618      N1656   1.350       .  A
N1619      N1626   1.322       .  A
N1619      N1649   1.326       .  A
N1619     Co1652   2.091       .  S
N1620      N1638   1.321       .  A
N1620      N1656   1.325       .  A
N1621      C1650   1.347       .  A
N1621      N1631   1.325       .  A
H1622      C1647   1.081       .  S
N1623      N1644   1.325       .  A
N1624      N1642   1.321       .  A
N1624      N1629   1.325       .  A
C1625      C1653   1.459       .  S
C1625      N1629   1.347       .  A
N1626      C1641   1.342       .  A
N1626     Co1648   2.095       .  S
C1627      C1630   1.459       .  S
C1627      H1661   1.081       .  S
C1627      N1655   1.343       .  A
C1630      N1651   1.348       .  A
N1631      N1637   1.321       .  A
N1632      C1658   1.345       .  A
N1632      N1634   1.321       .  A
N1632     Co1648   2.096       .  S
N1633      C1647   1.343       .  A
N1634      N1662   1.323       .  A
N1634     Co1652   2.078       .  S
H1635      C1658   1.081       .  S
H1636      C1653   1.081       .  S
N1638     Co1652   2.086       .  S
N1639      N1651   1.326       .  A
N1639      N1655   1.321       .  A
N1639     Co1648   2.085       .  S
C1640      C1654   1.460       .  S
C1640      N1644   1.350       .  A
C1641      C1660   1.459       .  S
C1641      H1645   1.081       .  S
N1642      C1653   1.344       .  A
N1642     Co1652   2.097       .  S
C1646      C1658   1.459       .  S
C1646      N1662   1.346       .  A
Co1648    Cl1659   2.456       .  S
N1649      C1660   1.349       .  A
Co1652    Cl1659   2.456       .  S
C1663      C1664   1.408   1_556  A
C1663      C2010   1.418       .  A
C1664      C1665   1.402       .  A
C1664      H1673   1.083       .  S
C1665      C1666   1.413       .  A
C1665      S1669   1.804       .  S
C1666      C2009   1.404   1_554  A
C1666      C1932   1.496       .  S
C1667      C1837   1.404       .  A
C1667      C1668   1.401       .  A
C1667      H1674   1.084       .  S
C1668      C1834   1.418       .  A
C1668      S1670   1.804       .  S
S1669      H1672   1.406       .  S
S1670      H1671   1.407       .  S
C1675      C1676   1.404   1_556  A
C1675      C2022   1.413       .  A
C1675      C1931   1.500       .  S
C1676      C1677   1.403       .  A
C1676      H1685   1.084       .  S
C1677      C1678   1.422   1_554  A
C1677      S1681   1.805       .  S
C1678      C2021   1.410       .  A
C1679      C1849   1.410       .  A
C1679      C1680   1.404       .  A
C1679      H1686   1.083       .  S
C1680      C1846   1.413       .  A
C1680      S1682   1.804       .  S
S1681      H1684   1.407       .  S
S1682      H1683   1.406       .  S
C1687      C1859   1.403       .  A
C1687      C1692   1.413       .  A
C1688      C2029   1.403       .  A
C1688      C1689   1.400       .  A
C1688      H1697   1.084       .  S
C1689      C1690   1.419       .  A
C1689      S1693   1.804       .  S
C1690      C2033   1.408   1_554  A
C1691      C1861   1.408       .  A
C1691      C1692   1.401       .  A
C1691      H1698   1.083       .  S
C1692      S1694   1.805       .  S
S1693      H1696   1.407       .  S
S1694      H1695   1.406       .  S
C1699      C1700   1.405       .  A
C1699      C1875   1.414       .  A
C1700      C1701   1.402       .  A
C1700      H1709   1.084       .  S
C1701      C1873   1.421       .  A
C1701      S1705   1.805       .  S
C1702      C2043   1.421       .  A
C1702      C1703   1.413   1_556  A
C1703      C1704   1.403       .  A
C1703      H1710   1.082       .  S
C1704      C2041   1.414   1_554  A
C1704      S1706   1.806       .  S
S1705      H1708   1.408       .  S
S1706      H1707   1.406       .  S
C1711      C1716   1.413       .  A
C1711      C1873   1.509       .  S
C1712      C1882   1.414       .  A
C1712      C1713   1.404       .  A
C1712      H1717   1.081       .  S
C1713      C1714   1.399       .  A
C1713      C1811   1.472       .  S
C1714      C1886   1.400       .  A
C1714      H1718   1.084       .  S
C1715      C1716   1.404       .  A
C1715      C1821   1.469       .  S
C1716      H1719   1.082       .  S
C1720      C1725   1.409       .  A
C1720      C1861   1.495       .  S
C1721      C1891   1.409       .  A
C1721      C1722   1.403       .  A
C1721      H1726   1.084       .  S
C1722      C1723   1.401       .  A
C1722      C1789   1.468       .  S
C1723      C1895   1.400       .  A
C1723      H1727   1.084       .  S
C1724      C1725   1.403       .  A
C1724      C1796   1.469       .  S
C1725      H1728   1.083       .  S
C1729      C1734   1.411       .  A
C1729      C1849   1.504       .  S
C1730      C1900   1.413       .  A
C1730      C1731   1.406       .  A
C1730      H1735   1.083       .  S
C1731      C1903   1.401       .  A
C1731      C1781   1.473       .  S
C1732      C1733   1.400       .  A
C1732      H1736   1.084       .  S
C1733      C1734   1.403       .  A
C1733      C1801   1.471       .  S
C1734      H1737   1.083       .  S
N1738      H1770   1.036       .  S
N1738      C1742   1.356       .  A
N1739      C1747   1.351       .  A
N1740      H1771   1.039       .  S
N1740      C1744   1.356       .  A
N1741      C1749   1.356       .  A
C1742      C1750   1.384       .  A
C1742      C1758   1.419       .  A
C1743      C1759   1.424       .  A
C1743      C1751   1.390       .  A
C1744      C1752   1.386       .  A
C1744      C1761   1.418       .  A
C1745      C1760   1.418       .  A
C1745      C1753   1.387   1_655  A
C1746      C1758   1.413       .  A
C1747      C1761   1.414       .  A
C1747      C1755   1.386       .  A
C1748      C1759   1.425       .  A
C1749      C1757   1.385       .  A
C1749      C1760   1.421       .  A
C1750      H1762   1.082       .  S
C1751      H1763   1.079       .  S
C1752      H1764   1.082       .  S
C1753      H1765   1.082   1_455  S
C1754      C1755   1.374       .  A
C1755      H1767   1.082       .  S
C1756      C1757   1.374       .  A
C1757      H1769   1.082       .  S
C1758      C1858   1.494       .  S
C1759      C1870   1.503       .  S
C1760      C2017   1.500       .  S
C1761      C2008   1.496       .  S
C1772      C1777   1.407       .  A
C1772      C1834   1.495       .  S
C1773      C1943   1.410       .  A
C1773      C1774   1.405       .  A
C1773      H1778   1.083       .  S
C1774      C1946   1.402       .  A
C1774      C1831   1.472       .  S
C1775      C1776   1.400       .  A
C1775      H1779   1.084       .  S
C1776      C1777   1.401       .  A
C1776      C1817   1.467       .  S
C1777      H1780   1.084       .  S
C1781      C1818   1.458       .  S
C1781      N1799   1.351       .  A
N1782      N1799   1.326       .  A
N1782      N1804   1.321       .  A
N1782     Co1819   2.095       .  S
C1783      C1821   1.459       .  S
C1783      H1828   1.081       .  S
C1783      N1808   1.344       .  A
H1784      C1825   1.081       .  S
C1785      C1789   1.457       .  S
C1785      H1814   1.081       .  S
C1785      N1809   1.342       .  A
Co1786     N1804   2.091       .  S
Co1786     N1794   2.091       .  S
Co1786     N1826   2.097       .  S
Co1786     N1802   2.080       .  S
Co1786    Cl1830   2.456       .  S
N1787      C1825   1.345       .  A
N1787      N1794   1.321       .  A
N1787     Co1788   2.096       .  S
Co1788     N1791   2.091       .  S
Co1788     N1808   2.097       .  S
Co1788     N1795   2.082       .  S
Co1788    Cl1830   2.456       .  S
C1789      N1827   1.350       .  A
N1790      N1797   1.322       .  A
N1790      N1820   1.326       .  A
N1790     Co1823   2.091       .  S
N1791      N1809   1.321       .  A
N1791      N1827   1.325       .  A
N1792      C1821   1.347       .  A
N1792      N1802   1.325       .  A
H1793      C1818   1.081       .  S
N1794      N1815   1.325       .  A
N1795      N1813   1.321       .  A
N1795      N1800   1.325       .  A
C1796      C1824   1.459       .  S
C1796      N1800   1.347       .  A
N1797      C1812   1.342       .  A
N1797     Co1819   2.095       .  S
C1798      C1801   1.459       .  S
C1798      H1832   1.081       .  S
C1798      N1826   1.343       .  A
C1801      N1822   1.348       .  A
N1802      N1808   1.321       .  A
N1803      C1829   1.345       .  A
N1803      N1805   1.321       .  A
N1803     Co1819   2.096       .  S
N1804      C1818   1.343       .  A
N1805      N1833   1.323       .  A
N1805     Co1823   2.078       .  S
H1806      C1829   1.081       .  S
H1807      C1824   1.081       .  S
N1809     Co1823   2.086       .  S
N1810      N1822   1.326       .  A
N1810      N1826   1.321       .  A
N1810     Co1819   2.085       .  S
C1811      C1825   1.460       .  S
C1811      N1815   1.350       .  A
C1812      C1831   1.459       .  S
C1812      H1816   1.081       .  S
N1813      C1824   1.344       .  A
N1813     Co1823   2.097       .  S
C1817      C1829   1.459       .  S
C1817      N1833   1.346       .  A
Co1819    Cl1830   2.456       .  S
N1820      C1831   1.349       .  A
Co1823    Cl1830   2.456       .  S
C1834      C1835   1.408       .  A
C1835      C1836   1.402       .  A
C1835      H1844   1.083       .  S
C1836      C1837   1.413       .  A
C1836      S1840   1.804       .  S
C1838      C2008   1.404       .  A
C1838      C1839   1.401       .  A
C1838      H1845   1.084       .  S
C1839      C2005   1.418       .  A
C1839      S1841   1.804       .  S
S1840      H1843   1.406       .  S
S1841      H1842   1.407       .  S
C1846      C1847   1.404       .  A
C1847      C1848   1.403       .  A
C1847      H1856   1.084       .  S
C1848      C1849   1.422       .  A
C1848      S1852   1.805       .  S
C1850      C2020   1.410       .  A
C1850      C1851   1.404       .  A
C1850      H1857   1.083       .  S
C1851      C2017   1.413       .  A
C1851      S1853   1.804       .  S
S1852      H1855   1.407       .  S
S1853      H1854   1.406       .  S
C1858      C2030   1.403       .  A
C1858      C1863   1.413       .  A
C1859      C1860   1.400       .  A
C1859      H1868   1.084       .  S
C1860      C1861   1.419       .  A
C1860      S1864   1.804       .  S
C1862      C2032   1.408       .  A
C1862      C1863   1.401       .  A
C1862      H1869   1.083       .  S
C1863      S1865   1.805       .  S
S1864      H1867   1.407       .  S
S1865      H1866   1.406       .  S
C1870      C1871   1.405       .  A
C1870      C2046   1.414       .  A
C1871      C1872   1.402       .  A
C1871      H1880   1.084       .  S
C1872      C2044   1.421       .  A
C1872      S1876   1.805       .  S
C1873      C1874   1.413       .  A
C1874      C1875   1.403       .  A
C1874      H1881   1.082       .  S
C1875      S1877   1.806       .  S
S1876      H1879   1.408       .  S
S1877      H1878   1.406       .  S
C1882      C1887   1.413       .  A
C1882      C2044   1.510       .  S
C1883      C1884   1.404       .  A
C1883      H1888   1.081       .  S
C1884      C1885   1.399       .  A
C1884      C1982   1.473       .  S
C1885      H1889   1.084       .  S
C1886      C1887   1.404       .  A
C1886      C1992   1.469       .  S
C1887      H1890   1.082       .  S
C1891      C1896   1.409       .  A
C1891      C2032   1.495       .  S
C1892      C1893   1.403       .  A
C1892      H1897   1.084       .  S
C1893      C1894   1.401       .  A
C1893      C1960   1.468       .  S
C1894      H1898   1.084       .  S
C1895      C1896   1.403       .  A
C1895      C1967   1.469       .  S
C1896      H1899   1.083       .  S
C1900      C1905   1.411       .  A
C1900      C2020   1.504       .  S
C1901      C1902   1.406       .  A
C1901      H1906   1.083       .  S
C1902      C1952   1.473       .  S
C1903      C1904   1.400       .  A
C1903      H1907   1.084       .  S
C1904      C1905   1.403       .  A
C1904      C1972   1.471       .  S
C1905      H1908   1.083       .  S
N1909      H1941   1.036       .  S
N1909      C1913   1.356   1_554  A
N1910      C1918   1.351       .  A
N1911      H1942   1.038       .  S
N1911      C1915   1.356   1_554  A
N1912      C1920   1.356   1_556  A
C1913      C1921   1.384       .  A
C1913      C1929   1.419   1_556  A
C1914      C1930   1.424       .  A
C1914      C1922   1.390       .  A
C1915      C1923   1.386       .  A
C1915      C1932   1.418   1_556  A
C1916      C1931   1.418       .  A
C1916      C1924   1.387   1_655  A
C1917      C1929   1.413       .  A
C1918      C1932   1.414       .  A
C1918      C1926   1.386       .  A
C1919      C1930   1.425   1_554  A
C1920      C1928   1.385       .  A
C1920      C1931   1.421   1_554  A
C1921      H1933   1.082       .  S
C1922      H1934   1.079       .  S
C1923      H1935   1.082       .  S
C1924      H1936   1.082   1_455  S
C1925      C1926   1.374       .  A
C1926      H1938   1.082       .  S
C1927      C1928   1.374       .  A
C1928      H1940   1.082       .  S
C1929      C2029   1.494       .  S
C1930      C2041   1.503       .  S
C1943      C1948   1.407       .  A
C1943      C2005   1.494       .  S
C1944      C1945   1.405       .  A
C1944      H1949   1.083       .  S
C1945      C2002   1.472       .  S
C1946      C1947   1.400       .  A
C1946      H1950   1.084       .  S
C1947      C1948   1.401       .  A
C1947      C1988   1.467       .  S
C1948      H1951   1.084       .  S
C1952      C1989   1.458       .  S
C1952      N1970   1.351       .  A
N1953      N1970   1.326       .  A
N1953      N1975   1.321       .  A
N1953     Co1990   2.095       .  S
C1954      C1992   1.459       .  S
C1954      H1999   1.081       .  S
C1954      N1979   1.344       .  A
H1955      C1996   1.081       .  S
C1956      C1960   1.457       .  S
C1956      H1985   1.081       .  S
C1956      N1980   1.342       .  A
Co1957     N1975   2.091       .  S
Co1957     N1965   2.091       .  S
Co1957     N1997   2.097       .  S
Co1957     N1973   2.080       .  S
Co1957    Cl2001   2.456       .  S
N1958      C1996   1.345       .  A
N1958      N1965   1.321       .  A
N1958     Co1959   2.096       .  S
Co1959     N1962   2.091       .  S
Co1959     N1979   2.097       .  S
Co1959     N1966   2.082       .  S
Co1959    Cl2001   2.456       .  S
C1960      N1998   1.350       .  A
N1961      N1968   1.322       .  A
N1961      N1991   1.326       .  A
N1961     Co1994   2.091       .  S
N1962      N1980   1.321       .  A
N1962      N1998   1.325       .  A
N1963      C1992   1.347       .  A
N1963      N1973   1.325       .  A
H1964      C1989   1.081       .  S
N1965      N1986   1.325       .  A
N1966      N1984   1.321       .  A
N1966      N1971   1.325       .  A
C1967      C1995   1.459       .  S
C1967      N1971   1.347       .  A
N1968      C1983   1.342       .  A
N1968     Co1990   2.095       .  S
C1969      C1972   1.459       .  S
C1969      H2003   1.081       .  S
C1969      N1997   1.343       .  A
C1972      N1993   1.348       .  A
N1973      N1979   1.321       .  A
N1974      C2000   1.345       .  A
N1974      N1976   1.321       .  A
N1974     Co1990   2.096       .  S
N1975      C1989   1.343       .  A
N1976      N2004   1.323       .  A
N1976     Co1994   2.077       .  S
H1977      C2000   1.081       .  S
H1978      C1995   1.081       .  S
N1980     Co1994   2.086       .  S
N1981      N1993   1.326       .  A
N1981      N1997   1.321       .  A
N1981     Co1990   2.085       .  S
C1982      C1996   1.460       .  S
C1982      N1986   1.350       .  A
C1983      C2002   1.459       .  S
C1983      H1987   1.081       .  S
N1984      C1995   1.344       .  A
N1984     Co1994   2.097       .  S
C1988      C2000   1.459       .  S
C1988      N2004   1.346       .  A
Co1990    Cl2001   2.456       .  S
N1991      C2002   1.349       .  A
Co1994    Cl2001   2.456       .  S
C2005      C2006   1.408       .  A
C2006      C2007   1.402       .  A
C2006      H2015   1.083       .  S
C2007      C2008   1.413       .  A
C2007      S2011   1.804       .  S
C2009      C2010   1.401       .  A
C2009      H2016   1.084       .  S
C2010      S2012   1.804       .  S
S2011      H2014   1.406       .  S
S2012      H2013   1.407       .  S
C2017      C2018   1.404       .  A
C2018      C2019   1.403       .  A
C2018      H2027   1.084       .  S
C2019      C2020   1.422       .  A
C2019      S2023   1.805       .  S
C2021      C2022   1.404       .  A
C2021      H2028   1.083       .  S
C2022      S2024   1.804       .  S
S2023      H2026   1.407       .  S
S2024      H2025   1.406       .  S
C2029      C2034   1.413   1_554  A
C2030      C2031   1.400       .  A
C2030      H2039   1.084       .  S
C2031      C2032   1.419       .  A
C2031      S2035   1.804       .  S
C2033      C2034   1.401       .  A
C2033      H2040   1.083       .  S
C2034      S2036   1.805       .  S
S2035      H2038   1.407       .  S
S2036      H2037   1.406       .  S
C2041      C2042   1.405       .  A
C2042      C2043   1.402       .  A
C2042      H2051   1.084       .  S
C2043      S2047   1.805       .  S
C2044      C2045   1.413       .  A
C2045      C2046   1.403       .  A
C2045      H2052   1.082       .  S
C2046      S2048   1.806       .  S
S2047      H2050   1.408       .  S
S2048      H2049   1.406       .  S
