geometry optimzed in LAMMPS
_audit_creation_date              2020-11-30 
_audit_creation_method            'lammps2cif' 
_symmetry_space_group_name_H-M    'P1' 
_symmetry_Int_Tables_number       1 
_symmetry_cell_setting            triclinic 
loop_ 
_symmetry_equiv_pos_as_xyz 
  x,y,z 
_cell_length_a                    43.73569508 
_cell_length_b                    43.216951213787006 
_cell_length_c                    42.897347670249786 
_cell_angle_alpha                 90.21236642411965 
_cell_angle_beta                  89.64875653508135 
_cell_angle_gamma                 90.0190701154262 
loop_ 
_atom_site_label 
_atom_site_type_symbol 
_atom_site_fract_x 
_atom_site_fract_y 
_atom_site_fract_z 
_atom_site_charge 
C1          C  0.24815242  0.20065518  0.23567132     0.80600
N2          N  0.25138998  0.17725438  0.25638702    -0.77800
C3          C  0.23363338  0.17578957  0.28244948     0.83000
N4          N  0.21284814  0.19859037  0.28799731    -0.77700
C5          C  0.20924976  0.22218138  0.26744974     0.83100
N6          N  0.22712336  0.22302774  0.24151388    -0.79400
N7          N  0.13582327  0.43991377  0.44683158    -0.27000
N8          N  0.12849833  0.41155982  0.43778744    -0.34800
C9          C  0.10961020  0.39838125  0.45856986     0.01400
C10         C  0.10425350  0.41897736  0.48233569     0.07400
C11         C  0.12110470  0.44535738  0.47433765    -0.05700
H12         H  0.10024344  0.37530887  0.45630807     0.08100
H13         H  0.12251258  0.46671540  0.48747919     0.09300
Cu14       Cu  0.14268733  0.39021788  0.39767979     0.44200
Cu15       Cu  0.16613446  0.46786207  0.41908269     0.42000
Cu16       Cu  0.18437726  0.43036854  0.34219847     0.43900
N17         N  0.15541469  0.36992273  0.35651782    -0.34300
N18         N  0.17098373  0.38491596  0.33500580    -0.28600
C19         C  0.17740786  0.36530942  0.31143907    -0.04700
C20         C  0.16518363  0.33642300  0.31864914     0.07500
C21         C  0.15134420  0.34048552  0.34752401     0.01300
H22         H  0.19119054  0.37138302  0.29136495     0.09000
H23         H  0.14002831  0.32325102  0.36167921     0.08000
N24         N  0.20236789  0.47216749  0.35731128    -0.35800
N25         N  0.19706751  0.48600698  0.38449632    -0.28000
C26         C  0.21513544  0.51155261  0.38582399    -0.03200
C27         C  0.23210697  0.51361287  0.35823135     0.05400
C28         C  0.22336870  0.48823482  0.34103203     0.03500
H29         H  0.21636397  0.52708523  0.40561406     0.08600
H30         H  0.23238299  0.48127180  0.31852617     0.07400
N31         N  0.43777134  0.10146174  0.45196098    -0.27000
N32         N  0.42376993  0.08634604  0.42920326    -0.34800
C33         C  0.44414776  0.06896902  0.41333571     0.01400
C34         C  0.47258436  0.07305863  0.42634894     0.07400
C35         C  0.46782414  0.09373079  0.45093018    -0.05700
H36         H  0.43858907  0.05443521  0.39357081     0.08100
H37         H  0.48492740  0.10249842  0.46679029     0.09300
Cu38       Cu  0.37766902  0.08973200  0.41894517     0.44200
Cu39       Cu  0.41405017  0.13217413  0.48284830     0.42000
Cu40       Cu  0.33077403  0.13189485  0.47132997     0.43900
N41         N  0.33287182  0.10129276  0.40894758    -0.34300
N42         N  0.31532673  0.11668028  0.42867499    -0.28600
C43         C  0.28911519  0.12433676  0.41449221    -0.04700
C44         C  0.29009185  0.11334064  0.38401605     0.07500
C45         C  0.31831245  0.09863848  0.38158508     0.01300
H46         H  0.27188583  0.13903688  0.42498954     0.09000
H47         H  0.32868933  0.08876730  0.36090256     0.08000
N48         N  0.35257548  0.15922007  0.50380381    -0.35800
N49         N  0.38253306  0.16073683  0.50803564    -0.28000
C50         C  0.38800189  0.18355130  0.52906418    -0.03200
C51         C  0.36016935  0.19651770  0.53822956     0.05400
C52         C  0.33844222  0.18053184  0.52165741     0.03500
H53         H  0.41051501  0.19070575  0.53652034     0.08600
H54         H  0.31407496  0.18487436  0.52157201     0.07400
N55         N  0.43460616  0.38579988  0.14223319    -0.27000
N56         N  0.40896187  0.37338193  0.13166758    -0.34800
C57         C  0.39344872  0.39424655  0.11481557     0.01400
C58         C  0.40968692  0.42149282  0.11433041     0.07400
C59         C  0.43584032  0.41545504  0.13186630    -0.05700
H60         H  0.37184126  0.38973366  0.10351689     0.08100
H61         H  0.45435015  0.43137227  0.13656109     0.09300
Cu62       Cu  0.39462031  0.32870137  0.13973189     0.44200
Cu63       Cu  0.46593659  0.35981563  0.17031799     0.42000
Cu64       Cu  0.44152535  0.27843006  0.18246931     0.43900
N65         N  0.38003627  0.28568730  0.15394405    -0.34300
N66         N  0.39740127  0.26673156  0.17002017    -0.28600
C67         C  0.38056879  0.24225122  0.17898120    -0.04700
C68         C  0.35092576  0.24603759  0.16804509     0.07500
C69         C  0.35171597  0.27392213  0.15207921     0.01300
H70         H  0.38885942  0.22429332  0.19421930     0.09000
H71         H  0.33279473  0.28599480  0.14158267     0.08000
N72         N  0.48121674  0.29722372  0.20047692    -0.35800
N73         N  0.49050969  0.32627414  0.19728581    -0.28000
C74         C  0.51638337  0.32972836  0.21430346    -0.03200
C75         C  0.52337049  0.30156770  0.22842789     0.05400
C76         C  0.50052014  0.28177904  0.21910373     0.03500
H77         H  0.52887643  0.35120412  0.21670144     0.08600
H78         H  0.49755943  0.25791876  0.22608398     0.07400
N79         N  0.96152913  0.30209052  0.63752819    -0.27000
N80         N  0.93676289  0.31333393  0.65151534    -0.34800
C81         C  0.92294756  0.29096124  0.66803956     0.01400
C82         C  0.93934236  0.26400350  0.66473654     0.07400
C83         C  0.96371064  0.27165298  0.64507043    -0.05700
H84         H  0.90174778  0.29394837  0.68083925     0.08100
H85         H  0.98130859  0.25618109  0.63650122     0.09300
Cu86       Cu  0.91901171  0.35740430  0.64681744     0.44200
Cu87       Cu  0.99011349  0.32971402  0.60792042     0.42000
Cu88       Cu  0.95912502  0.40757150  0.59765907     0.43900
N89         N  0.90036077  0.39872251  0.63208883    -0.34300
N90         N  0.91582669  0.41758439  0.61381385    -0.28600
C91         C  0.89751682  0.44071330  0.60478961    -0.04700
C92         C  0.86874566  0.43617385  0.61775808     0.07500
C93         C  0.87152628  0.40922098  0.63510134     0.01300
H94         H  0.90401953  0.45793066  0.58776108     0.08200
H95         H  0.85350181  0.39692261  0.64718557     0.08000
N96         N  0.99958130  0.39299327  0.57765226    -0.35800
N97         N  0.01162393  0.36502814  0.58054789    -0.28000
C98         C  0.03787058  0.36435881  0.56350702    -0.03200
C99         C  0.04213509  0.39322716  0.54964147     0.05400
C100        C  0.01734049  0.41050030  0.55907673     0.03500
H101        H  0.05262847  0.34439081  0.56118480     0.08600
H102        H  0.01232007  0.43415411  0.55270033     0.07400
C103        C  0.73104020  0.45750821  0.50969520     0.80600
N104        N  0.73587248  0.48223100  0.49080792    -0.77800
C105        C  0.75686701  0.50417236  0.49816467     0.83000
N106        N  0.77345648  0.50090760  0.52459247    -0.77700
C107        C  0.76903776  0.47637369  0.54379554     0.83100
N108        N  0.74793722  0.45460158  0.53601497    -0.79400
N109        N  0.96733177  0.58312546  0.33721390    -0.27000
N110        N  0.95173452  0.59679988  0.36001632    -0.34800
C111        C  0.97076372  0.61359334  0.37778354     0.01400
C112        C  0.99997181  0.61087085  0.36604502     0.07400
C113        C  0.99719364  0.59124925  0.34029962    -0.05700
H114        H  0.96377660  0.62662044  0.39819964     0.08100
H115        H  0.01547560  0.58333057  0.32518096     0.09300
Cu116      Cu  0.90537372  0.59260917  0.36887357     0.44200
Cu117      Cu  0.94586879  0.55363372  0.30353465     0.42000
Cu118      Cu  0.86301357  0.54734265  0.31782805     0.43900
N119        N  0.86019488  0.58160761  0.37783367    -0.34300
N120        N  0.84422687  0.56457368  0.35833768    -0.28600
C121        C  0.81712796  0.55764665  0.37138769    -0.04700
C122        C  0.81588762  0.57078613  0.40097876     0.07500
C123        C  0.84372606  0.58608990  0.40400309     0.01300
H124        H  0.80085279  0.54188491  0.36106240     0.09000
H125        H  0.85251796  0.59758171  0.42449410     0.08000
N126        N  0.88550027  0.52540694  0.28178200    -0.35800
N127        N  0.91519984  0.52673632  0.27559525    -0.28000
C128        C  0.92057332  0.50888006  0.25000465    -0.03200
C129        C  0.89292106  0.49597302  0.24029857     0.05400
C130        C  0.87149421  0.50707704  0.26098317     0.03500
H131        H  0.94277809  0.50560531  0.23924544     0.08600
H132        H  0.84720713  0.50227090  0.26093897     0.07400
N133        N  0.61197295  0.25506547  0.33407542    -0.27000
N134        N  0.61003271  0.28476995  0.34159302    -0.34800
C135        C  0.59382118  0.29996603  0.31995230     0.01400
C136        C  0.58481160  0.27923917  0.29737702     0.07400
C137        C  0.59659519  0.25083151  0.30699036    -0.05700
H138        H  0.58852995  0.32440935  0.32093489     0.08100
H139        H  0.59384538  0.22875913  0.29537131     0.09300
Cu140      Cu  0.62801445  0.30474652  0.38128011     0.44200
Cu141      Cu  0.63543330  0.22247991  0.36283669     0.42000
Cu142      Cu  0.66153845  0.25653694  0.43742168     0.43900
N143        N  0.64718705  0.32195449  0.42165398    -0.34300
N144        N  0.65957000  0.30400295  0.44288495    -0.28600
C145        C  0.67169553  0.32177572  0.46545359    -0.04700
C146        C  0.66674050  0.35263815  0.45801675     0.07500
C147        C  0.65097522  0.35166159  0.43001825     0.01300
H148        H  0.68435735  0.31277453  0.48499553     0.09000
H149        H  0.64362249  0.37097537  0.41601098     0.08000
N150        N  0.66858843  0.21095269  0.42454985    -0.35800
N151        N  0.66011946  0.19793814  0.39791659    -0.28000
C152        C  0.67035996  0.16829131  0.39788375    -0.03200
C153        C  0.68576212  0.16287860  0.42570788     0.05400
C154        C  0.68406297  0.19039654  0.44181141     0.03500
H155        H  0.66714947  0.15201966  0.37896624     0.08600
H156        H  0.69390540  0.19540983  0.46435714     0.07400
N157        N  0.30525803  0.58228691  0.96668112    -0.27000
N158        N  0.31860140  0.59403265  0.94152768    -0.34800
C159        C  0.29844367  0.61116840  0.92553871     0.01400
C160        C  0.27077352  0.61056146  0.94090879     0.07400
C161        C  0.27577581  0.59215781  0.96707340    -0.05700
H162        H  0.30376370  0.62352955  0.90429229     0.08100
H163        H  0.25929448  0.58662370  0.98511218     0.09300
Cu164      Cu  0.36366955  0.58773817  0.92838196     0.44200
Cu165      Cu  0.32931180  0.55349633  0.99907740     0.42000
Cu166      Cu  0.41095105  0.54664063  0.97929092     0.43900
N167        N  0.40785415  0.57559208  0.91648348    -0.34300
N168        N  0.42567370  0.56030016  0.93568153    -0.28600
C169        C  0.45173182  0.55273562  0.92076999    -0.04700
C170        C  0.45028566  0.56373674  0.89041850     0.07500
C171        C  0.42201445  0.57829944  0.88875315     0.01300
H172        H  0.46936619  0.53840500  0.93077023     0.09000
H173        H  0.41156241  0.58854496  0.86849277     0.08000
N174        N  0.39090573  0.52518077  0.01714662    -0.35800
N175        N  0.36153073  0.52631589  0.02486675    -0.28000
C176        C  0.35728778  0.50732527  0.04970899    -0.03200
C177        C  0.38534295  0.49411387  0.05764262     0.05400
C178        C  0.40581541  0.50599092  0.03638826     0.03500
H179        H  0.33542664  0.50297680  0.06078871     0.08600
H180        H  0.42985446  0.50036272  0.03437343     0.07400
C181        C  0.51076259  0.48360766  0.74000035     0.80600
N182        N  0.53442970  0.46440966  0.74673070    -0.77800
C183        C  0.54981447  0.46728280  0.77403714     0.83000
N184        N  0.54075005  0.48910909  0.79502450    -0.77700
C185        C  0.51699560  0.50829341  0.78883004     0.83100
N186        N  0.50211372  0.50525663  0.76131765    -0.79400
N187        N  0.62915239  0.28219445  0.97575331    -0.27000
N188        N  0.64226966  0.30634698  0.96218156    -0.34800
C189        C  0.66253216  0.31926406  0.98171953     0.01400
C190        C  0.66264284  0.30281082  0.00912929     0.07400
C191        C  0.64110475  0.27940634  0.00476847    -0.05700
H192        H  0.67609662  0.33952184  0.97637450     0.08100
H193        H  0.63458080  0.26182673  0.02140664     0.09300
Cu194      Cu  0.63290773  0.32279916  0.91795056     0.44200
Cu195      Cu  0.59540551  0.25477751  0.95274212     0.42000
Cu196      Cu  0.58325349  0.27834641  0.87145834     0.43900
N197        N  0.61900060  0.33726171  0.87432248    -0.34300
N198        N  0.60081899  0.32028632  0.85681144    -0.28600
C199        C  0.59355165  0.33625536  0.83110712    -0.04700
C200        C  0.60770267  0.36498424  0.83243810     0.07500
C201        C  0.62375551  0.36465209  0.86030222     0.01300
H202        H  0.57731087  0.32829953  0.81391964     0.09000
H203        H  0.63665412  0.38344407  0.87053894     0.08000
N204        N  0.56095850  0.24148597  0.89221383    -0.35800
N205        N  0.56433233  0.23263570  0.92154856    -0.28000
C206        C  0.54502284  0.20861306  0.92672985    -0.03200
C207        C  0.52914741  0.20230946  0.89935981     0.05400
C208        C  0.53984925  0.22365985  0.87819587     0.03500
H209        H  0.54254802  0.19675913  0.94876702     0.08600
H210        H  0.53249174  0.22642421  0.85432690     0.07400
N211        N  0.32004849  0.31461031  0.61511288    -0.27000
N212        N  0.34922559  0.32145442  0.61019901    -0.34800
C213        C  0.36298303  0.29821577  0.59464290     0.01400
C214        C  0.34180730  0.27533135  0.58923704     0.07400
C215        C  0.31469083  0.28635470  0.60240863    -0.05700
H216        H  0.38679855  0.29812501  0.58765075     0.08100
H217        H  0.29278556  0.27472259  0.60269897     0.09300
Cu218      Cu  0.37070327  0.36178241  0.62379582     0.44200
Cu219      Cu  0.28956530  0.34514130  0.63922794     0.42000
Cu220      Cu  0.32358124  0.42151128  0.65276678     0.43900
N221        N  0.38816991  0.40352825  0.63889094    -0.34300
N222        N  0.37042954  0.42608759  0.64903022    -0.28600
C223        C  0.38793612  0.44926915  0.65975139    -0.04700
C224        C  0.41847018  0.44089390  0.65641709     0.07500
C225        C  0.41755340  0.41163084  0.64288664     0.01300
H226        H  0.37884359  0.46960550  0.67121442     0.09000
H227        H  0.43660153  0.39644000  0.63793582     0.08000
N228        N  0.28018286  0.40944018  0.66757838    -0.35800
N229        N  0.26728664  0.38194303  0.66376174    -0.28000
C230        C  0.23968751  0.38252119  0.67836607    -0.03200
C231        C  0.23545380  0.41166939  0.69175466     0.05400
C232        C  0.26155933  0.42790033  0.68437034     0.03500
H233        H  0.22405562  0.36314822  0.67948841     0.08600
H234        H  0.26701009  0.45136401  0.69127097     0.07400
N235        N  0.50770839  0.76098102  0.14348063    -0.27000
N236        N  0.47846986  0.76816064  0.14659796    -0.34800
C237        C  0.46344769  0.74583614  0.16188914     0.01400
C238        C  0.48377638  0.72294435  0.16920128     0.07400
C239        C  0.51192868  0.73311191  0.15740193    -0.05700
H240        H  0.43931830  0.74650885  0.16759412     0.08100
H241        H  0.53363088  0.72122773  0.15888716     0.09300
Cu242      Cu  0.45865285  0.80773428  0.13130595     0.44200
Cu243      Cu  0.53792781  0.79190854  0.11943421     0.42000
Cu244      Cu  0.49707202  0.86237634  0.08740504     0.43900
N245        N  0.43730218  0.84655034  0.11618412    -0.34300
N246        N  0.45115576  0.86778345  0.09929788    -0.28600
C247        C  0.43071792  0.89003650  0.09241917    -0.04700
C248        C  0.40271118  0.88199899  0.10575526     0.07500
C249        C  0.40797821  0.85426703  0.12064075     0.01300
H250        H  0.43568684  0.91006571  0.07822314     0.09000
H251        H  0.39173715  0.84033827  0.13352918     0.08000
N252        N  0.54317511  0.85192114  0.08060826    -0.35800
N253        N  0.55830740  0.82775903  0.09179808    -0.28000
C254        C  0.58783791  0.83011017  0.08220189    -0.03200
C255        C  0.59109266  0.85670645  0.06424149     0.05400
C256        C  0.56238192  0.86974989  0.06385117     0.03500
H257        H  0.60559427  0.81363951  0.08774923     0.08600
H258        H  0.55582493  0.89090675  0.05224803     0.07400
C259        C  0.28696630  0.93766621  0.07685617     0.80600
N260        N  0.26275544  0.91866044  0.07156064    -0.77800
C261        C  0.23831684  0.92859599  0.05488810     0.83000
N262        N  0.23865989  0.95768684  0.04291461    -0.77700
C263        C  0.26264412  0.97697650  0.04807874     0.83100
N264        N  0.28666405  0.96665379  0.06493670    -0.79400
N265        N  0.42223434  0.11221117  0.86025995    -0.27000
N266        N  0.41286494  0.11969457  0.88875451    -0.34800
C267        C  0.43368448  0.13812812  0.90242474     0.01400
C268        C  0.45755250  0.14275844  0.88188915     0.07400
C269        C  0.44964190  0.12607780  0.85526987    -0.05700
H270        H  0.43146273  0.14761205  0.92571083     0.08100
H271        H  0.46275278  0.12430490  0.83387402     0.09300
Cu272      Cu  0.37231943  0.10536031  0.90924263     0.44200
Cu273      Cu  0.39614908  0.08340158  0.82983190     0.42000
Cu274      Cu  0.32064777  0.06394986  0.86128472     0.43900
N275        N  0.33231906  0.08607105  0.92627860    -0.34300
N276        N  0.31294239  0.07111638  0.90825193    -0.28600
C277        C  0.29090501  0.05847664  0.92602034    -0.04700
C278        C  0.29669085  0.06560550  0.95699443     0.07500
C279        C  0.32319452  0.08332929  0.95612023     0.01300
H280        H  0.27349722  0.04306886  0.91714911     0.09000
H281        H  0.33607645  0.09198546  0.97574187     0.08000
N282        N  0.33612297  0.04914892  0.81817739    -0.35800
N283        N  0.36350267  0.05514647  0.80625868    -0.28000
C284        C  0.36585698  0.03995240  0.77863129    -0.03200
C285        C  0.33866266  0.02402135  0.77325591     0.05400
C286        C  0.32058358  0.03037616  0.79885439     0.03500
H287        H  0.38595274  0.04008982  0.76380307     0.08600
H288        H  0.29793739  0.02137124  0.80356211     0.07400
N289        N  0.12026289  0.77298667  0.84660699    -0.27000
N290        N  0.11258747  0.79858786  0.86189189    -0.34800
C291        C  0.09571073  0.81687288  0.84343649     0.01400
C292        C  0.09226673  0.80258623  0.81492682     0.07400
C293        C  0.10820443  0.77476030  0.81755346    -0.05700
H294        H  0.08688552  0.83930272  0.85024847     0.08100
H295        H  0.11090992  0.75725344  0.79967738     0.09300
Cu296      Cu  0.12544389  0.80990380  0.90692209     0.44200
Cu297      Cu  0.14716749  0.73715839  0.86735841     0.42000
Cu298      Cu  0.15754441  0.75056385  0.95119040     0.43900
N299        N  0.14306744  0.81775674  0.95091934    -0.34300
N300        N  0.15445730  0.79518469  0.96779465    -0.28600
C301        C  0.16632123  0.80701114  0.99407033    -0.04700
C302        C  0.16229476  0.83889116  0.99383956     0.07500
C303        C  0.14728613  0.84472251  0.96598301     0.01300
H304        H  0.17860415  0.79343460  0.01099286     0.09000
H305        H  0.14134502  0.86698802  0.95637362     0.08000
N306        N  0.17382196  0.71216142  0.92796446    -0.35800
N307        N  0.17187216  0.70682343  0.89760334    -0.28000
C308        C  0.18851313  0.68099835  0.89119354    -0.03200
C309        C  0.20095390  0.66994227  0.91894508     0.05400
C310        C  0.19114140  0.69040124  0.94143392     0.03500
H311        H  0.19194358  0.67144095  0.86809414     0.08600
H312        H  0.19732841  0.69037082  0.96581789     0.07400
N313        N  0.09538330  0.55576014  0.82310818    -0.27000
N314        N  0.06782117  0.56304955  0.81298817    -0.34800
C315        C  0.05540968  0.58507481  0.83125549     0.01400
C316        C  0.07590058  0.59249734  0.85429715     0.07400
C317        C  0.10115469  0.57346682  0.84861454    -0.05700
H318        H  0.03242632  0.59395954  0.82877528     0.08100
H319        H  0.12171179  0.57206756  0.86242436     0.09300
Cu320      Cu  0.04521842  0.53937229  0.77857124     0.44200
Cu321      Cu  0.12108284  0.52001054  0.80060411     0.42000
Cu322      Cu  0.07058991  0.46322484  0.76140156     0.43900
N323        N  0.01593685  0.50339781  0.76972725    -0.34300
N324        N  0.02459631  0.47453006  0.76500002    -0.28600
C325        C  0.99964105  0.45619747  0.76566694    -0.04700
C326        C  0.97416066  0.47466792  0.77136979     0.07500
C327        C  0.98558406  0.50444732  0.77353598     0.01300
H328        H  0.00025855  0.43122855  0.76401733     0.09000
H329        H  0.97321708  0.52528217  0.77958496     0.08000
N330        N  0.11799779  0.46274103  0.75805064    -0.35800
N331        N  0.13666755  0.48283638  0.77161226    -0.28000
C332        C  0.16565058  0.47578448  0.76276006    -0.03200
C333        C  0.16490225  0.45018928  0.74296205     0.05400
C334        C  0.13437537  0.44273334  0.74055118     0.03500
H335        H  0.18572513  0.48862617  0.76975326     0.08600
H336        H  0.12460524  0.42440795  0.72652734     0.07400
C337        C  0.85457687  0.43568572  0.81339235     0.80600
N338        N  0.84383422  0.44916453  0.83986335    -0.77800
C339        C  0.81771994  0.43916406  0.85365110     0.83000
N340        N  0.80219751  0.41517861  0.84064544    -0.77700
C341        C  0.81248888  0.40152356  0.81397163     0.83100
N342        N  0.83892470  0.41171278  0.80061256    -0.79400
N343        N  0.75214578  0.37538002  0.09391406    -0.27000
N344        N  0.73752313  0.39417780  0.07487758    -0.34800
C345        C  0.71539046  0.37879907  0.05989936     0.01400
C346        C  0.71539031  0.34857011  0.06964690     0.07400
C347        C  0.73920054  0.34687261  0.09121923    -0.05700
H348        H  0.70155081  0.38855641  0.04157370     0.08100
H349        H  0.74711574  0.32637371  0.10309284     0.09300
Cu350      Cu  0.75149816  0.43794130  0.06330397     0.44200
Cu351      Cu  0.79037420  0.39251983  0.11948672     0.42000
Cu352      Cu  0.83006049  0.45193242  0.07239607     0.43900
N353        N  0.77765190  0.45793023  0.02910378    -0.34300
N354        N  0.80744684  0.46181245  0.03132997    -0.28600
C355        C  0.81871250  0.46904564  0.00301269    -0.04700
C356        C  0.79469551  0.46928895  0.98192031     0.07500
C357        C  0.76902820  0.46231336  0.99953744     0.01300
H358        H  0.84281876  0.47123223  0.99770160     0.09000
H359        H  0.74620545  0.45778807  0.99111903     0.08000
N360        N  0.84054291  0.44220623  0.11841022    -0.35800
N361        N  0.82640223  0.42154526  0.13618724    -0.28000
C362        C  0.83772720  0.42417129  0.16543237    -0.03200
C363        C  0.86002309  0.44721723  0.16566471     0.05400
C364        C  0.86094319  0.45807863  0.13553761     0.03500
H365        H  0.82965927  0.41103642  0.18527216     0.08600
H366        H  0.87453959  0.47718076  0.12689245     0.07400
N367        N  0.85614273  0.17084585  0.73240571    -0.27000
N368        N  0.83975595  0.19012079  0.71540764    -0.34800
C369        C  0.85802876  0.20580531  0.69586566     0.01400
C370        C  0.88771153  0.19647574  0.70028044     0.07400
C371        C  0.88593632  0.17432660  0.72389940    -0.05700
H372        H  0.85050498  0.22482386  0.68149189     0.08100
H373        H  0.90490679  0.16281066  0.73499920     0.09300
Cu374      Cu  0.79533149  0.20289321  0.72442374     0.44200
Cu375      Cu  0.83477867  0.14392692  0.76803781     0.42000
Cu376      Cu  0.77103621  0.18813459  0.80102169     0.43900
N377        N  0.77626481  0.23656170  0.75238028    -0.34300
N378        N  0.76844744  0.23168584  0.78165054    -0.28600
C379        C  0.76342564  0.25908008  0.79571678    -0.04700
C380        C  0.76872408  0.28250407  0.77421519     0.07500
C381        C  0.77660580  0.26709188  0.74689649     0.01300
H382        H  0.75909059  0.26172487  0.82043048     0.09000
H383        H  0.78498251  0.27714668  0.72545914     0.08000
N384        N  0.77921153  0.14225800  0.81150973    -0.35800
N385        N  0.80211192  0.12546730  0.80018754    -0.28000
C386        C  0.79976165  0.09662701  0.81233877    -0.03200
C387        C  0.77416928  0.09561314  0.83182654     0.05400
C388        C  0.76196178  0.12492301  0.83072233     0.03500
H389        H  0.81544112  0.07785401  0.80741515     0.08600
H390        H  0.74195131  0.13321320  0.84314328     0.07400
N391        N  0.01850761  0.88888275  0.72602889    -0.27000
N392        N  0.03987602  0.90616962  0.73912388    -0.34800
C393        C  0.05970770  0.88817909  0.75449872     0.01400
C394        C  0.05092144  0.85776369  0.75125773     0.07400
C395        C  0.02447178  0.85888735  0.73317108    -0.05700
H396        H  0.07795036  0.89688763  0.76901902     0.08100
H397        H  0.01005194  0.83955759  0.72684214     0.09300
Cu398      Cu  0.03808731  0.95359632  0.74334104     0.44200
Cu399      Cu  0.98153339  0.90998738  0.70177558     0.42000
Cu400      Cu  0.96353612  0.98439569  0.73885540     0.43900
N401        N  0.02113379  0.98505532  0.77509704    -0.34300
N402        N  0.99274457  0.99519093  0.77488540    -0.28600
C403        C  0.98657295  0.00895984  0.80236782    -0.04700
C404        C  0.01241817  0.00711743  0.82108245     0.07500
C405        C  0.03389599  0.99200395  0.80254592     0.01300
H406        H  0.96409293  0.01714603  0.80901996     0.09000
H407        H  0.05596367  0.98329138  0.80950209     0.08000
N408        N  0.94404904  0.96952331  0.69771487    -0.35800
N409        N  0.95010524  0.94295898  0.68340594    -0.28000
C410        C  0.93387499  0.94223260  0.65657403    -0.03200
C411        C  0.91721599  0.96960905  0.65427519     0.05400
C412        C  0.92421981  0.98609388  0.68076116     0.03500
H413        H  0.93434980  0.92339924  0.63989200     0.08600
H414        H  0.91579324  0.00880235  0.68717495     0.07400
C415        C  0.97232822  0.97079844  0.99340585     0.80600
N416        N  0.97861058  0.98720667  0.96719042    -0.77800
C417        C  0.00530543  0.98307460  0.95142757     0.83000
N418        N  0.02577192  0.96205671  0.96208293    -0.77700
C419        C  0.02000454  0.94565196  0.98839719     0.83100
N420        N  0.99297510  0.94977750  0.00374892    -0.79400
N421        N  0.72572914  0.00130416  0.93254606    -0.27000
N422        N  0.74567573  0.01899345  0.94726829    -0.34800
C423        C  0.75723805  0.04017734  0.92768649     0.01400
C424        C  0.74417034  0.03605626  0.89891778     0.07400
C425        C  0.72415851  0.01114836  0.90258710    -0.05700
H426        H  0.77515098  0.05639944  0.93362341     0.08100
H427        H  0.71026959  0.00053267  0.88471896     0.09300
Cu428      Cu  0.76169552  0.01050943  0.99125582     0.44200
Cu429      Cu  0.70455958  0.96391802  0.95640158     0.42000
Cu430      Cu  0.75551782  0.93332851  0.01772684     0.43900
N431        N  0.79685082  0.98795015  0.01288954    -0.34300
N432        N  0.79607724  0.95859377  0.02107062    -0.28600
C433        C  0.82471493  0.94966088  0.02839805    -0.04700
C434        C  0.84440988  0.97479840  0.02445367     0.07500
C435        C  0.82551697  0.99857921  0.01473332     0.01300
H436        H  0.83089672  0.92619841  0.03434231     0.09000
H437        H  0.83217138  0.02129349  0.00673619     0.08000
N438        N  0.70999203  0.91975305  0.01197647    -0.35800
N439        N  0.69134543  0.93060983  0.99031483    -0.28000
C440        C  0.66334479  0.91801114  0.99495043    -0.03200
C441        C  0.66455896  0.89837199  0.02050713     0.05400
C442        C  0.69442235  0.90017869  0.03066066     0.03500
H443        H  0.64337849  0.92330183  0.98118946     0.08600
H444        H  0.70400579  0.88872747  0.05074190     0.07400
N445        N  0.96592018  0.71945214  0.02784843    -0.27000
N446        N  0.97977922  0.73721162  0.04863259    -0.34800
C447        C  0.95909371  0.74915727  0.06859919     0.01400
C448        C  0.93053513  0.73862165  0.06044326     0.07400
C449        C  0.93552835  0.71972126  0.03446545    -0.05700
H450        H  0.96442227  0.76529951  0.08712807     0.08100
H451        H  0.91835069  0.70757170  0.02114254     0.09300
Cu452      Cu  0.02535039  0.74925910  0.04713444     0.44200
Cu453      Cu  0.99092157  0.69745517  0.99108383     0.42000
Cu454      Cu  0.06217040  0.73842121  0.97357822     0.43900
N455        N  0.05466610  0.78120184  0.02798351    -0.34300
N456        N  0.06664010  0.77849696  0.99986260    -0.28600
C457        C  0.07675198  0.80640719  0.99064765    -0.04700
C458        C  0.07080653  0.82793058  0.01418627     0.07500
C459        C  0.05708951  0.81061630  0.03761874     0.01300
H460        H  0.08468774  0.81104665  0.96728997     0.09000
H461        H  0.04568790  0.81925708  0.05828526     0.08000
N462        N  0.05010088  0.69690352  0.95252772    -0.35800
N463        N  0.02441180  0.68160705  0.95831066    -0.28000
C464        C  0.02443780  0.65564529  0.94049576    -0.03200
C465        C  0.05135167  0.65477587  0.92299338     0.05400
C466        C  0.06689243  0.68131254  0.93123939     0.03500
H467        H  0.00629811  0.63862118  0.94033333     0.08600
H468        H  0.08890690  0.68881945  0.92242470     0.07400
N469        N  0.81697723  0.01802967  0.56094931    -0.27000
N470        N  0.80445502  0.99288246  0.57299842    -0.34800
C471        C  0.82375764  0.97965656  0.59314743     0.01400
C472        C  0.84999114  0.99706924  0.59433835     0.07400
C473        C  0.84514667  0.02141909  0.57364237    -0.05700
H474        H  0.81940984  0.95810006  0.60513423     0.08100
H475        H  0.86107228  0.03968664  0.56780905     0.09300
Cu476      Cu  0.76417983  0.97351099  0.55845601     0.44200
Cu477      Cu  0.79318918  0.04373898  0.52650064     0.42000
Cu478      Cu  0.74079925  0.99249186  0.48249406     0.43900
N479        N  0.74787676  0.94112466  0.52783277    -0.34300
N480        N  0.74088848  0.94720374  0.49866595    -0.28600
C481        C  0.73767102  0.92022803  0.48317491    -0.04700
C482        C  0.74318829  0.89597950  0.50374702     0.07500
C483        C  0.74929528  0.91047899  0.53190535     0.01300
H484        H  0.73391606  0.91857385  0.45832566     0.09000
H485        H  0.75716457  0.89997357  0.55321971     0.08000
N486        N  0.74262397  0.04033826  0.47728923    -0.35800
N487        N  0.76099717  0.05922710  0.49287427    -0.28000
C488        C  0.75456950  0.08861353  0.48421484    -0.03200
C489        C  0.73129815  0.08794349  0.46225048     0.05400
C490        C  0.72434902  0.05702613  0.45858951     0.03500
H491        H  0.76564598  0.10899228  0.49356316     0.08600
H492        H  0.70680914  0.04729840  0.44380660     0.07400
C493        C  0.83784935  0.74754926  0.47186936     0.80600
N494        N  0.81897165  0.76998669  0.48299353    -0.77800
C495        C  0.79395104  0.77884968  0.46674362     0.83000
N496        N  0.78806409  0.76521111  0.43890449    -0.77700
C497        C  0.80670694  0.74269268  0.42741150     0.83100
N498        N  0.83177366  0.73411230  0.44385597    -0.79400
N499        N  0.07858676  0.68534714  0.45924334    -0.27000
N500        N  0.05824704  0.66852255  0.47458413    -0.34800
C501        C  0.04536657  0.64785109  0.45532866     0.01400
C502        C  0.05780080  0.65127285  0.42604405     0.07400
C503        C  0.07877148  0.67552192  0.42909991    -0.05700
H504        H  0.02617223  0.63329961  0.46159994     0.08100
H505        H  0.09194511  0.68612824  0.41058513     0.09300
Cu506      Cu  0.04052270  0.67927695  0.51766616     0.44200
Cu507      Cu  0.10138522  0.72261968  0.48223201     0.42000
Cu508      Cu  0.04744879  0.75911904  0.53531405     0.43900
N509        N  0.00350103  0.70694336  0.52751658    -0.34300
N510        N  0.00557515  0.73698134  0.53252781    -0.28600
C511        C  0.97738876  0.74935305  0.53158482    -0.04700
C512        C  0.95652802  0.72587616  0.52533022     0.07500
C513        C  0.97412213  0.69929335  0.52305505     0.01300
H514        H  0.97282886  0.77391603  0.53293458     0.09000
H515        H  0.96668388  0.67646996  0.51602831     0.08000
N516        N  0.09349785  0.77034271  0.53438573    -0.35800
N517        N  0.11383520  0.75729403  0.51545536    -0.28000
C518        C  0.14170236  0.76910345  0.52238636    -0.03200
C519        C  0.13841084  0.79050867  0.54655279     0.05400
C520        C  0.10760137  0.79050943  0.55350370     0.03500
H521        H  0.16284840  0.76226024  0.51110609     0.08600
H522        H  0.09624500  0.80373685  0.57165093     0.07400
N523        N  0.75051252  0.83107370  0.19439323    -0.27000
N524        N  0.73446889  0.81264864  0.21286320    -0.34800
C525        C  0.71362447  0.82916256  0.22888150     0.01400
C526        C  0.71608607  0.85975222  0.22049796     0.07400
C527        C  0.73990864  0.86037572  0.19861815    -0.05700
H528        H  0.69908381  0.81979315  0.24703224     0.08100
H529        H  0.74950042  0.88066864  0.18759112     0.09300
Cu530      Cu  0.74492607  0.76726060  0.22240284     0.44200
Cu531      Cu  0.78763408  0.81316784  0.16701466     0.42000
Cu532      Cu  0.82072286  0.74551065  0.20618549     0.43900
N533        N  0.77027562  0.74080964  0.25245186    -0.34300
N534        N  0.79925460  0.73397249  0.24759117    -0.28600
C535        C  0.81111256  0.72262177  0.27407664    -0.04700
C536        C  0.78835129  0.72250379  0.29692296     0.07500
C537        C  0.76273679  0.73406945  0.28196014     0.01300
H538        H  0.83504343  0.71712791  0.27694971     0.09000
H539        H  0.74102619  0.74030149  0.29232567     0.08000
N540        N  0.83429519  0.76051654  0.16249552    -0.35800
N541        N  0.82303156  0.78469937  0.14748245    -0.28000
C542        C  0.83774954  0.78668541  0.11959165    -0.03200
C543        C  0.85887999  0.76258053  0.11735458     0.05400
C544        C  0.85596031  0.74674319  0.14496560     0.03500
H545        H  0.83347735  0.80430096  0.10230550     0.08600
H546        H  0.86878196  0.72654105  0.15196664     0.07400
N547        N  0.64007915  0.93544468  0.31856515    -0.27000
N548        N  0.65024308  0.90958850  0.33140982    -0.34800
C549        C  0.66812603  0.89421993  0.31106449     0.01400
C550        C  0.66982097  0.91072477  0.28377877     0.07400
C551        C  0.65169779  0.93686025  0.28911635    -0.05700
H552        H  0.67893553  0.87223083  0.31579088     0.08100
H553        H  0.64713478  0.95526868  0.27278761     0.09300
Cu554      Cu  0.64003951  0.89373538  0.37561007     0.44200
Cu555      Cu  0.61015984  0.96650303  0.34326417     0.42000
Cu556      Cu  0.59892567  0.94273211  0.42512721     0.43900
N557        N  0.62580715  0.87971629  0.41926677    -0.34300
N558        N  0.61081523  0.89850362  0.43815302    -0.28600
C559        C  0.60177353  0.88276401  0.46350365    -0.04700
C560        C  0.61135984  0.85229498  0.46040085     0.07500
C561        C  0.62669971  0.85134511  0.43196488     0.01300
H562        H  0.58706500  0.89225600  0.48152123     0.09000
H563        H  0.63618858  0.83122702  0.42039467     0.08000
N564        N  0.57831768  0.98087089  0.40554744    -0.35800
N565        N  0.58104686  0.98996320  0.37617434    -0.28000
C566        C  0.56198761  0.01442930  0.37217759    -0.03200
C567        C  0.54704431  0.02066511  0.40037570     0.05400
C568        C  0.55798742  0.99884629  0.42068280     0.03500
H569        H  0.55872556  0.02634233  0.35031570     0.08600
H570        H  0.55093383  0.99554075  0.44466654     0.07400
C571        C  0.49490413  0.74966651  0.54801017     0.80600
N572        N  0.51976122  0.76707663  0.54063048    -0.77800
C573        C  0.53984293  0.75764834  0.51824943     0.83000
N574        N  0.53457062  0.73064999  0.50288927    -0.77700
C575        C  0.50984881  0.71293585  0.50997179     0.83100
N576        N  0.49003276  0.72275115  0.53239797    -0.79400
N577        N  0.29504963  0.92261841  0.67700180    -0.27000
N578        N  0.32463872  0.91617634  0.67863287    -0.34800
C579        C  0.33876713  0.93720274  0.69666348     0.01400
C580        C  0.31747228  0.95821684  0.70720169     0.07400
C581        C  0.28984863  0.94837095  0.69444743    -0.05700
H582        H  0.36289188  0.93685706  0.70209579     0.08100
H583        H  0.26766307  0.95894055  0.69787981     0.09300
Cu584      Cu  0.34640670  0.87890666  0.65807827     0.44200
Cu585      Cu  0.26362313  0.89469202  0.65107943     0.42000
Cu586      Cu  0.30018798  0.82410733  0.62129955     0.43900
N587        N  0.36442581  0.83978862  0.63732162    -0.34300
N588        N  0.34686065  0.81887468  0.62398005    -0.28600
C589        C  0.36448231  0.79669636  0.61124310    -0.04700
C590        C  0.39482527  0.80410467  0.61672264     0.07500
C591        C  0.39385450  0.83165557  0.63340429     0.01300
H592        H  0.35581760  0.77752980  0.59764370     0.09000
H593        H  0.41302870  0.84529373  0.64137838     0.08000
N594        N  0.25511532  0.83517517  0.61348170    -0.35800
N595        N  0.24087998  0.86045928  0.62339139    -0.28000
C596        C  0.21181408  0.85943544  0.61244387    -0.03200
C597        C  0.20818796  0.83232012  0.59503627     0.05400
C598        C  0.23606057  0.81778470  0.59635235     0.03500
H599        H  0.19472465  0.87709023  0.61661084     0.08600
H600        H  0.24228573  0.79611139  0.58530253     0.07400
N601        N  0.41988640  0.63057570  0.25971571    -0.27000
N602        N  0.44669058  0.63322367  0.27376473    -0.34800
C603        C  0.46654441  0.64833640  0.25529360     0.01400
C604        C  0.45214027  0.65579976  0.22799850     0.07400
C605        C  0.42242971  0.64443607  0.23146729    -0.05700
H606        H  0.48954001  0.65467257  0.26196942     0.08100
H607        H  0.40388922  0.64687459  0.21508007     0.09300
Cu608      Cu  0.45639677  0.62074897  0.31888464     0.44200
Cu609      Cu  0.38093208  0.60938435  0.28164442     0.42000
Cu610      Cu  0.39586504  0.59248577  0.36371658     0.43900
N611        N  0.45859509  0.61877527  0.36673360    -0.34300
N612        N  0.43559123  0.60834385  0.38362515    -0.28600
C613        C  0.44147355  0.61324990  0.41391222    -0.04700
C614        C  0.46969636  0.62771144  0.41627564     0.07500
C615        C  0.47989827  0.63068613  0.38573279     0.01300
H616        H  0.42546473  0.60832671  0.43255281     0.09000
H617        H  0.50010076  0.64279069  0.37768942     0.08000
N618        N  0.35524039  0.58213079  0.34206208    -0.35800
N619        N  0.34859569  0.58777078  0.31252571    -0.28000
C620        C  0.31970864  0.57738069  0.30745263    -0.03200
C621        C  0.30816066  0.56499415  0.33518869     0.05400
C622        C  0.33140762  0.56845300  0.35630988     0.03500
H623        H  0.30805780  0.57854651  0.28531761     0.08600
H624        H  0.33117793  0.56132320  0.38046475     0.07400
C625        C  0.44451100  0.74478234  0.57574821    -0.13000
C626        C  0.47111886  0.76199705  0.56943492     0.09100
C627        C  0.47347953  0.79217346  0.58153426    -0.13000
C628        C  0.44919529  0.80538536  0.59815542    -0.13000
C629        C  0.42198248  0.78874921  0.60295308     0.09100
C630        C  0.42019410  0.75804978  0.59227925    -0.13000
H631        H  0.44199536  0.72139631  0.56702461     0.13100
H632        H  0.49362958  0.80611867  0.57714339     0.13100
H633        H  0.45129859  0.82911515  0.60592447     0.13100
H634        H  0.39970127  0.74445844  0.59604198     0.13100
C635        C  0.46261474  0.65246265  0.46866963    -0.13000
C636        C  0.48200973  0.64426624  0.44374220     0.09100
C637        C  0.51225569  0.65521608  0.44361326    -0.13000
C638        C  0.52208214  0.67600486  0.46647293    -0.13000
C639        C  0.50183899  0.68623289  0.48990605     0.09100
C640        C  0.47242138  0.67321054  0.49151132    -0.13000
H641        H  0.43916906  0.64449557  0.46961810     0.13100
H642        H  0.52794670  0.64881734  0.42509314     0.13100
H643        H  0.54507835  0.68521695  0.46485556     0.13100
H644        H  0.45626761  0.68041021  0.50932165     0.13100
C645        C  0.58661807  0.83046444  0.50826099    -0.13000
C646        C  0.59943651  0.82571545  0.47851226     0.09100
C647        C  0.59685069  0.79634740  0.46459803    -0.13000
C648        C  0.57927043  0.77326049  0.47870717    -0.13000
C649        C  0.56393642  0.77907806  0.50703687     0.09100
C650        C  0.56901994  0.80739210  0.52237344    -0.13000
H651        H  0.58881716  0.85257083  0.51993866     0.13100
H652        H  0.60652461  0.79174791  0.44175857     0.13100
H653        H  0.57612093  0.75162073  0.46636731     0.13100
H654        H  0.55801411  0.81243302  0.54451821     0.13100
C655        C  0.70056157  0.88485419  0.23699659    -0.12900
C656        C  0.68624654  0.90018465  0.25601754    -0.14500
C657        C  0.18189223  0.82057637  0.57804896    -0.12900
C658        C  0.16203320  0.80749148  0.56322389    -0.14500
C659        C  0.88000113  0.76270975  0.50790318    -0.13000
C660        C  0.86646840  0.74038847  0.48847377     0.09100
C661        C  0.88148637  0.71209613  0.48363347    -0.13000
C662        C  0.91005385  0.70670452  0.49697335    -0.13000
C663        C  0.92442803  0.72971409  0.51503004     0.09100
C664        C  0.90874025  0.75750223  0.52089563    -0.13000
H665        H  0.86894696  0.78479370  0.51206476     0.13100
H666        H  0.87143495  0.69439032  0.46900968     0.13100
H667        H  0.92130840  0.68496517  0.49188348     0.13100
H668        H  0.91891632  0.77555844  0.53493951     0.13100
C669        C  0.77200588  0.73165838  0.38302139    -0.13000
C670        C  0.80148784  0.73075964  0.39559588     0.09100
C671        C  0.82609997  0.72192960  0.37635026    -0.13000
C672        C  0.82163911  0.71699729  0.34440652    -0.13000
C673        C  0.79242154  0.72056538  0.33127275     0.09100
C674        C  0.76746519  0.72624906  0.35134556    -0.13000
H675        H  0.75254169  0.73781549  0.39747458     0.13100
H676        H  0.84910578  0.72088486  0.38552374     0.13100
H677        H  0.84136636  0.71209970  0.32992923     0.13100
H678        H  0.74443985  0.72818813  0.34255324     0.13100
C679        C  0.74608185  0.85179291  0.46538149    -0.13000
C680        C  0.75064589  0.86331724  0.49570121     0.09100
C681        C  0.76566437  0.84437835  0.51743448    -0.13000
C682        C  0.77828532  0.81612055  0.50836305    -0.13000
C683        C  0.77581746  0.80577503  0.47747657     0.09100
C684        C  0.75846113  0.82322589  0.45638106    -0.13000
H685        H  0.73412969  0.86535286  0.44816874     0.13100
H686        H  0.76928992  0.85184604  0.54118784     0.13100
H687        H  0.79106101  0.80294182  0.52530405     0.13100
H688        H  0.75591830  0.81571039  0.43242149     0.13100
C689        C  0.90212677  0.74723641  0.07610010    -0.12900
C690        C  0.88103813  0.75528797  0.09292957    -0.14500
C691        C  0.05766240  0.90437415  0.97427272    -0.13000
C692        C  0.04039378  0.91992385  0.99718570     0.09100
C693        C  0.03974453  0.90815701  0.02757447    -0.13000
C694        C  0.05324335  0.87966111  0.03410923    -0.13000
C695        C  0.06667607  0.86186147  0.01009944     0.09100
C696        C  0.07058930  0.87552539  0.98062298    -0.13000
H697        H  0.05899449  0.91316249  0.95068074     0.13100
H698        H  0.02733762  0.92014822  0.04589179     0.13100
H699        H  0.05096200  0.87071575  0.05750678     0.13100
H700        H  0.08141520  0.86309847  0.96166831     0.13100
C701        C  0.92510386  0.00068130  0.00535567    -0.13000
C702        C  0.94148302  0.97294412  0.00748127     0.09100
C703        C  0.92674963  0.94662305  0.01952236    -0.13000
C704        C  0.89544594  0.94747298  0.02682189    -0.13000
C705        C  0.87846316  0.97478641  0.02254973     0.09100
C706        C  0.89414035  0.00171190  0.01318033    -0.13000
H707        H  0.93602126  0.02139471  0.99653890     0.13100
H708        H  0.93891772  0.92487277  0.02139064     0.13100
H709        H  0.88440625  0.92639351  0.03438317     0.13100
H710        H  0.88240320  0.02352125  0.01037629     0.13100
C711        C  0.87670820  0.98904101  0.61255399    -0.12900
C712        C  0.89625982  0.97966557  0.63018627    -0.14500
C713        C  0.03906499  0.99885990  0.87202799    -0.13000
C714        C  0.01324123  0.00926412  0.85568657     0.09100
C715        C  0.98681202  0.01709969  0.87281894    -0.13000
C716        C  0.98504202  0.01100419  0.90476584    -0.13000
C717        C  0.00964507  0.99694020  0.92018584     0.09100
C718        C  0.03720740  0.99252262  0.90384303    -0.13000
H719        H  0.06029212  0.99360310  0.86009290     0.13100
H720        H  0.96673535  0.02602649  0.86138604     0.13100
H721        H  0.96360386  0.01530131  0.91681100     0.13100
H722        H  0.05685552  0.98244348  0.91517739     0.13100
C723        C  0.75305196  0.05308395  0.87116044    -0.12900
C724        C  0.76298866  0.07069498  0.85151361    -0.14500
C725        C  0.78235046  0.44058635  0.89972446    -0.13000
C726        C  0.80871709  0.45155410  0.88458665     0.09100
C727        C  0.82813965  0.47206156  0.90064559    -0.13000
C728        C  0.82265685  0.47930911  0.93194954    -0.13000
C729        C  0.79744790  0.46657730  0.94764592     0.09100
C730        C  0.77670706  0.44810946  0.93088461    -0.13000
H731        H  0.76678012  0.42496815  0.88798865     0.13100
H732        H  0.84849453  0.48125038  0.88959108     0.13100
H733        H  0.83878745  0.49390571  0.94420621     0.13100
H734        H  0.75709709  0.43776573  0.94222620     0.13100
C735        C  0.80529948  0.36177821  0.77214875    -0.13000
C736        C  0.79701355  0.37369262  0.80148158     0.09100
C737        C  0.77576579  0.35728573  0.81979086    -0.13000
C738        C  0.76497619  0.32839725  0.81001771    -0.13000
C739        C  0.77504811  0.31543852  0.78167557     0.09100
C740        C  0.79434188  0.33306923  0.76228141    -0.13000
H741        H  0.82126523  0.37406350  0.75726496     0.13100
H742        H  0.76865164  0.36596886  0.84239733     0.13100
H743        H  0.74970658  0.31570416  0.82526944     0.13100
H744        H  0.80255355  0.32411340  0.74022955     0.13100
C745        C  0.06959351  0.61349171  0.88018266    -0.12900
C746        C  0.06136789  0.63171240  0.90026890    -0.14500
C747        C  0.89559699  0.47512971  0.80843438    -0.13000
C748        C  0.88421140  0.44588701  0.80033357     0.09100
C749        C  0.90220996  0.42623383  0.78153270    -0.13000
C750        C  0.93143804  0.43553295  0.77171450    -0.13000
C751        C  0.94285224  0.46477436  0.78017016     0.09100
C752        C  0.92443073  0.48448012  0.79843356    -0.13000
H753        H  0.88232293  0.49079502  0.82290552     0.13100
H754        H  0.89407582  0.40341593  0.77516181     0.13100
H755        H  0.94510007  0.41985110  0.75767781     0.13100
H756        H  0.93246583  0.50693485  0.80594492     0.13100
C757        C  0.07652575  0.81606760  0.78834180    -0.12900
C758        C  0.06371643  0.83244054  0.76937756    -0.14500
C759        C  0.32363029  0.98337669  0.72890647    -0.12900
C760        C  0.33095567  0.00270605  0.74816400    -0.14500
C761        C  0.29179316  0.02480145  0.03437265    -0.13000
C762        C  0.26613730  0.00575072  0.02977896     0.09100
C763        C  0.24716375  0.01144010  0.00411450    -0.13000
C764        C  0.25574269  0.03310176  0.98158796    -0.13000
C765        C  0.28337192  0.04949945  0.98436200     0.09100
C766        C  0.30031352  0.04648065  0.01191020    -0.13000
H767        H  0.30663398  0.02141135  0.05418899     0.13100
H768        H  0.22697512  0.99751188  0.00007830     0.13100
H769        H  0.24169379  0.03552335  0.96106221     0.13100
H770        H  0.32149397  0.05896223  0.01515515     0.13100
C771        C  0.21733112  0.87461470  0.05166629    -0.13000
C772        C  0.21457686  0.90624828  0.04470754     0.09100
C773        C  0.19106678  0.91570000  0.02467261    -0.13000
C774        C  0.17259859  0.89386317  0.00978575    -0.13000
C775        C  0.17728465  0.86203755  0.01444532     0.09100
C776        C  0.19889061  0.85276158  0.03672300    -0.13000
H777        H  0.23490532  0.86648657  0.06731602     0.13100
H778        H  0.18789838  0.93991317  0.01917202     0.13100
H779        H  0.15563041  0.90203848  0.99354115     0.13100
H780        H  0.20288873  0.82856939  0.04149941     0.13100
C781        C  0.46474778  0.67622469  0.20434341    -0.12900
C782        C  0.47566675  0.69584185  0.18735469    -0.14500
C783        C  0.61821551  0.86921214  0.04890329    -0.12900
C784        C  0.63945869  0.88190565  0.03561799    -0.14500
C785        C  0.31730899  0.89437787  0.09989501    -0.13000
C786        C  0.31578580  0.92512489  0.08962140     0.09100
C787        C  0.34297118  0.94254491  0.08782322    -0.13000
C788        C  0.37120822  0.92882457  0.09393874    -0.13000
C789        C  0.37281878  0.89757840  0.10239430     0.09100
C790        C  0.34550312  0.88077255  0.10628556    -0.13000
H791        H  0.29683880  0.88032616  0.10167115     0.13100
H792        H  0.34267329  0.96637145  0.08020223     0.13100
H793        H  0.39182023  0.94251457  0.09132796     0.13100
H794        H  0.34585074  0.85664700  0.11278696     0.13100
C795        C  0.21014428  0.42339847  0.71055832    -0.12900
C796        C  0.18993786  0.43549219  0.72597270    -0.14500
C797        C  0.50513690  0.17967792  0.89363998    -0.12900
C798        C  0.48417310  0.16217773  0.88754384    -0.14500
C799        C  0.69733412  0.32452188  0.05461991    -0.12900
C800        C  0.68093602  0.31097471  0.03621519    -0.14500
C801        C  0.49598418  0.45102555  0.69394215    -0.13000
C802        C  0.49075381  0.47704196  0.71297857     0.09100
C803        C  0.46383751  0.49423866  0.70866825    -0.13000
C804        C  0.44128382  0.48379389  0.68828890    -0.13000
C805        C  0.44504417  0.45585110  0.67182302     0.09100
C806        C  0.47338769  0.44055819  0.67353668    -0.13000
H807        H  0.51672305  0.43752705  0.69620615     0.13100
H808        H  0.45927728  0.51477590  0.72243223     0.13100
H809        H  0.42024986  0.49686251  0.68690758     0.13100
H810        H  0.47758789  0.41944010  0.66068389     0.13100
C811        C  0.57075008  0.41350340  0.77002873    -0.13000
C812        C  0.57157933  0.44301242  0.78387713     0.09100
C813        C  0.58968340  0.44750618  0.81045740    -0.13000
C814        C  0.60387925  0.42240879  0.82484137    -0.13000
C815        C  0.59999485  0.39226754  0.81306730     0.09100
C816        C  0.58475430  0.38835970  0.78455088    -0.13000
H817        H  0.55730080  0.40928397  0.74933548     0.13100
H818        H  0.59121555  0.47010102  0.82136224     0.13100
H819        H  0.61582526  0.42646657  0.84646802     0.13100
H820        H  0.58205183  0.36558180  0.77434780     0.13100
C821        C  0.24382853  0.62821206  0.93202556    -0.12900
C822        C  0.22345664  0.64571702  0.92423301    -0.14500
C823        C  0.46105032  0.55896016  0.83301220    -0.13000
C824        C  0.47061942  0.55487942  0.86396332     0.09100
C825        C  0.49834050  0.53934577  0.86932653    -0.13000
C826        C  0.51467421  0.52597853  0.84460357    -0.13000
C827        C  0.50366640  0.52786116  0.81394173     0.09100
C828        C  0.47733887  0.54557608  0.80832180    -0.13000
H829        H  0.44007298  0.57103599  0.82774125     0.13100
H830        H  0.50686364  0.53631642  0.89272288     0.13100
H831        H  0.53506169  0.51278863  0.84979883     0.13100
H832        H  0.46835227  0.54781881  0.78498167     0.13100
C833        C  0.70177020  0.13535341  0.43626629    -0.12900
C834        C  0.71563765  0.11381809  0.44769426    -0.14500
C835        C  0.87516296  0.46149471  0.19220199    -0.12900
C836        C  0.88584847  0.47629046  0.21373074    -0.14500
C837        C  0.02683462  0.62471769  0.38039968    -0.12900
C838        C  0.04437256  0.63741489  0.39831768    -0.14500
C839        C  0.80339663  0.56581681  0.45791673    -0.13000
C840        C  0.79506783  0.56107575  0.42665192     0.09100
C841        C  0.76932427  0.54261837  0.42030517    -0.13000
C842        C  0.75492617  0.52605936  0.44416168    -0.13000
C843        C  0.76591715  0.52774985  0.47484743     0.09100
C844        C  0.78904891  0.54923598  0.48174512    -0.13000
H845        H  0.82253776  0.58043060  0.46399298     0.13100
H846        H  0.76149528  0.53923614  0.39667841     0.13100
H847        H  0.73667458  0.51023636  0.43808460     0.13100
H848        H  0.79758996  0.55168720  0.50525635     0.13100
C849        C  0.69420088  0.43478301  0.47150722    -0.13000
C850        C  0.71100350  0.43187822  0.49914248     0.09100
C851        C  0.71057600  0.40337111  0.51484912    -0.13000
C852        C  0.69515098  0.37791379  0.50220720    -0.13000
C853        C  0.67978127  0.38040183  0.47360898     0.09100
C854        C  0.67876756  0.40942512  0.45894113    -0.13000
H855        H  0.69379083  0.45643730  0.45888288     0.13100
H856        H  0.72311901  0.40033479  0.53630004     0.13100
H857        H  0.69605420  0.35612639  0.51449695     0.13100
H858        H  0.66707295  0.41252092  0.43706919     0.13100
C859        C  0.92929427  0.23427488  0.67694294    -0.12900
C860        C  0.91377687  0.21371175  0.68820348    -0.14500
C861        C  0.81264440  0.43399889  0.60623961    -0.13000
C862        C  0.84023761  0.45068541  0.60638504     0.09100
C863        C  0.84156404  0.47919361  0.59081664    -0.13000
C864        C  0.81717306  0.48899775  0.57249222    -0.13000
C865        C  0.79094827  0.47042810  0.56933223     0.09100
C866        C  0.78824955  0.44374157  0.58778996    -0.13000
H867        H  0.81065444  0.41211907  0.61821992     0.13100
H868        H  0.86222375  0.49301350  0.59113819     0.13100
H869        H  0.81985524  0.51001506  0.55910444     0.13100
H870        H  0.76813094  0.42918707  0.58636194     0.13100
C871        C  0.39251933  0.47025967  0.08044852    -0.12900
C872        C  0.40093870  0.44914520  0.09711203    -0.14500
C873        C  0.56497747  0.28642879  0.27117431    -0.12900
C874        C  0.54707330  0.29415872  0.25097875    -0.14500
C875        C  0.52240627  0.04229467  0.40752314    -0.12900
C876        C  0.50061422  0.05766830  0.41625350    -0.14500
C877        C  0.34770731  0.24658044  0.57257280    -0.12900
C878        C  0.35425723  0.22350833  0.55766300    -0.14500
C879        C  0.06598576  0.40357882  0.52824952    -0.12900
C880        C  0.08420594  0.41264996  0.50874891    -0.14500
C881        C  0.27915213  0.54962377  0.34172858    -0.12900
C882        C  0.25682098  0.53471449  0.34979697    -0.14500
C883        C  0.32572011  0.20247575  0.19713766    -0.13000
C884        C  0.32316517  0.22922079  0.17876903     0.09100
C885        C  0.29395408  0.24199602  0.17417698    -0.13000
C886        C  0.26868648  0.23066542  0.19053948    -0.13000
C887        C  0.27199422  0.20620300  0.21169307     0.09100
C888        C  0.30036394  0.19102534  0.21340951    -0.13000
H889        H  0.34763443  0.19140458  0.20053329     0.13100
H890        H  0.29072047  0.26210037  0.15972132     0.13100
H891        H  0.24698979  0.24253329  0.18823079     0.13100
H892        H  0.30364653  0.17183689  0.22916903     0.13100
C893        C  0.24549612  0.14350415  0.36310480    -0.13000
C894        C  0.27026644  0.12331842  0.35782168     0.09100
C895        C  0.27821802  0.11595031  0.32685680    -0.13000
C896        C  0.26428591  0.13111802  0.30202293    -0.13000
C897        C  0.24196141  0.15389326  0.30753325     0.09100
C898        C  0.23149112  0.15864070  0.33822233    -0.13000
H899        H  0.23799704  0.14917273  0.38650181     0.13100
H900        H  0.29648355  0.09989491  0.32161166     0.13100
H901        H  0.27245507  0.12638191  0.27859739     0.13100
H902        H  0.21399585  0.17567334  0.34331601     0.13100
C903        C  0.19603832  0.27807341  0.26052862    -0.13000
C904        C  0.19166805  0.25010051  0.27664561     0.09100
C905        C  0.17413843  0.25036286  0.30416462    -0.13000
C906        C  0.16370204  0.27829997  0.31678406    -0.13000
C907        C  0.17076242  0.30660956  0.30226826     0.09100
C908        C  0.18579488  0.30601472  0.27325410    -0.13000
H909        H  0.20913069  0.27875756  0.23902487     0.13100
H910        H  0.16996013  0.22919773  0.31692544     0.13100
H911        H  0.15165883  0.27759734  0.33885357     0.13100
H912        H  0.19096340  0.32718933  0.26095713     0.13100
loop_ 
_geom_bond_atom_site_label_1 
_geom_bond_atom_site_label_2 
_geom_bond_distance 
_geom_bond_site_symmetry_2 
_ccdc_geom_bond_type 
C1            N2   1.357       .  A
C1            N6   1.356       .  A
C1          C887   1.480       .  S
N2            C3   1.359       .  A
C3            N4   1.360       .  A
C3          C897   1.483       .  S
N4            C5   1.360       .  A
C5            N6   1.356       .  A
C5          C904   1.482       .  S
N7           C11   1.360       .  A
N7            N8   1.324       .  A
N7          Cu15   2.150       .  S
N8            C9   1.340       .  A
N8          Cu14   2.042       .  S
C9           C10   1.370       .  A
C9           H12   1.082       .  S
C10          C11   1.400       .  A
C10         C880   1.455       .  S
C11          H13   1.082       .  S
Cu14         N17   2.043       .  S
Cu15         N25   2.152       .  S
Cu16         N18   2.072       .  S
Cu16         N24   2.073       .  S
N17          C21   1.340       .  A
N17          N18   1.316       .  A
N18          C19   1.345       .  A
C19          C20   1.393       .  A
C19          H22   1.081       .  S
C20         C907   1.485       .  S
C20          C21   1.386       .  A
C21          H23   1.081       .  S
N24          C28   1.345       .  A
N24          N25   1.328       .  A
N25          C26   1.359       .  A
C26          C27   1.396       .  A
C26          H29   1.082       .  S
C27          C28   1.375       .  A
C27         C882   1.459       .  S
C28          H30   1.082       .  S
N31          C35   1.357       .  A
N31          N32   1.326       .  A
N31         Cu39   2.137       .  S
N32          C33   1.346       .  A
N32         Cu38   2.072       .  S
C33          C34   1.377       .  A
C33          H36   1.082       .  S
C34          C35   1.394       .  A
C34         C876   1.458       .  S
C35          H37   1.082       .  S
Cu38         N41   2.070       .  S
Cu39         N49   2.136       .  S
Cu40         N42   2.060       .  S
Cu40         N48   2.061       .  S
N41          C45   1.343       .  A
N41          N42   1.317       .  A
N42          C43   1.343       .  A
C43          C44   1.390       .  A
C43          H46   1.081       .  S
C44         C894   1.489       .  S
C44          C45   1.392       .  A
C45          H47   1.081       .  S
N48          C52   1.344       .  A
N48          N49   1.325       .  A
N49          C50   1.356       .  A
C50          C51   1.394       .  A
C50          H53   1.082       .  S
C51          C52   1.375       .  A
C51         C878   1.454       .  S
C52          H54   1.082       .  S
N55          C59   1.359       .  A
N55          N56   1.325       .  A
N55         Cu63   2.150       .  S
N56          C57   1.344       .  A
N56         Cu62   2.060       .  S
C57          C58   1.375       .  A
C57          H60   1.082       .  S
C58          C59   1.398       .  A
C58         C872   1.460       .  S
C59          H61   1.082       .  S
Cu62         N65   2.058       .  S
Cu63         N73   2.150       .  S
Cu64         N66   2.068       .  S
Cu64         N72   2.069       .  S
N65          C69   1.341       .  A
N65          N66   1.317       .  A
N66          C67   1.345       .  A
C67          C68   1.391       .  A
C67          H70   1.081       .  S
C68         C884   1.486       .  S
C68          C69   1.389       .  A
C69          H71   1.080       .  S
N72          C76   1.345       .  A
N72          N73   1.327       .  A
N73          C74   1.358       .  A
C74          C75   1.396       .  A
C74          H77   1.082       .  S
C75          C76   1.375       .  A
C75         C874   1.459       .  S
C76          H78   1.082       .  S
N79          C83   1.359       .  A
N79          N80   1.326       .  A
N79         Cu87   2.143       .  S
N80          C81   1.342       .  A
N80         Cu86   2.068       .  S
C81          C82   1.375       .  A
C81          H84   1.082       .  S
C82          C83   1.396       .  A
C82         C859   1.456       .  S
C83          H85   1.082       .  S
Cu86         N89   2.066       .  S
Cu87         N97   2.143   1_655  S
Cu88         N90   2.058       .  S
Cu88         N96   2.060       .  S
N89          C93   1.346       .  A
N89          N90   1.317       .  A
N90          C91   1.341       .  A
C91          C92   1.387       .  A
C91          H94   1.081       .  S
C92         C862   1.482       .  S
C92          C93   1.390       .  A
C93          H95   1.081       .  S
N96         C100   1.344   1_655  A
N96          N97   1.325   1_655  A
N97          C98   1.357       .  A
C98          C99   1.396       .  A
C98         H101   1.082       .  S
C99         C100   1.375       .  A
C99         C879   1.456       .  S
C100        H102   1.082       .  S
C103        N104   1.359       .  A
C103        N108   1.359       .  A
C103        C850   1.483       .  S
N104        C105   1.357       .  A
C105        N106   1.358       .  A
C105        C843   1.483       .  S
N106        C107   1.358       .  A
C107        N108   1.360       .  A
C107        C865   1.483       .  S
N109        C113   1.359       .  A
N109        N110   1.326       .  A
N109       Cu117   2.144       .  S
N110        C111   1.343       .  A
N110       Cu116   2.069       .  S
C111        C112   1.375       .  A
C111        H114   1.082       .  S
C112        C113   1.396       .  A
C112        C837   1.457   1_655  S
C113        H115   1.081   1_655  S
Cu116       N119   2.066       .  S
Cu117       N127   2.144       .  S
Cu118       N120   2.055       .  S
Cu118       N126   2.056       .  S
N119        C123   1.344       .  A
N119        N120   1.316       .  A
N120        C121   1.342       .  A
C121        C122   1.389       .  A
C121        H124   1.081       .  S
C122        C840   1.486       .  S
C122        C123   1.392       .  A
C123        H125   1.081       .  S
N126        C130   1.342       .  A
N126        N127   1.325       .  A
N127        C128   1.359       .  A
C128        C129   1.397       .  A
C128        H131   1.082       .  S
C129        C130   1.372       .  A
C129        C836   1.454       .  S
C130        H132   1.082       .  S
N133        C137   1.358       .  A
N133        N134   1.325       .  A
N133       Cu141   2.142       .  S
N134        C135   1.345       .  A
N134       Cu140   2.066       .  S
C135        C136   1.376       .  A
C135        H138   1.082       .  S
C136        C137   1.396       .  A
C136        C873   1.458       .  S
C137        H139   1.082       .  S
Cu140       N143   2.065       .  S
Cu141       N151   2.142       .  S
Cu142       N144   2.066       .  S
Cu142       N150   2.067       .  S
N143        C147   1.342       .  A
N143        N144   1.318       .  A
N144        C145   1.345       .  A
C145        C146   1.390       .  A
C145        H148   1.081       .  S
C146        C853   1.487       .  S
C146        C147   1.389       .  A
C147        H149   1.080       .  S
N150        C154   1.344       .  A
N150        N151   1.326       .  A
N151        C152   1.357       .  A
C152        C153   1.395       .  A
C152        H155   1.082       .  S
C153        C154   1.375       .  A
C153        C833   1.456       .  S
C154        H156   1.082       .  S
N157        C161   1.358       .  A
N157        N158   1.326       .  A
N157       Cu165   2.149       .  S
N158        C159   1.345       .  A
N158       Cu164   2.065       .  S
C159        C160   1.375       .  A
C159        H162   1.082       .  S
C160        C161   1.396       .  A
C160        C821   1.457       .  S
C161        H163   1.082       .  S
Cu164       N167   2.063       .  S
Cu165       N175   2.149   1_556  S
Cu166       N168   2.063       .  S
Cu166       N174   2.064   1_556  S
N167        C171   1.343       .  A
N167        N168   1.317       .  A
N168        C169   1.343       .  A
C169        C170   1.390       .  A
C169        H172   1.081       .  S
C170        C824   1.487       .  S
C170        C171   1.390       .  A
C171        H173   1.081       .  S
N174        C178   1.344       .  A
N174        N175   1.326       .  A
N175        C176   1.359       .  A
C176        C177   1.398       .  A
C176        H179   1.082       .  S
C177        C178   1.375       .  A
C177        C871   1.459       .  S
C178        H180   1.082       .  S
C181        N182   1.360       .  A
C181        N186   1.358       .  A
C181        C802   1.483       .  S
N182        C183   1.360       .  A
C183        N184   1.359       .  A
C183        C812   1.481       .  S
N184        C185   1.358       .  A
C185        N186   1.357       .  A
C185        C827   1.484       .  S
N187        C191   1.359   1_556  A
N187        N188   1.326       .  A
N187       Cu195   2.137       .  S
N188        C189   1.343       .  A
N188       Cu194   2.072       .  S
C189        C190   1.376   1_556  A
C189        H192   1.082       .  S
C190        C191   1.395       .  A
C190        C800   1.457       .  S
C191        H193   1.081       .  S
Cu194       N197   2.070       .  S
Cu195       N205   2.137       .  S
Cu196       N198   2.067       .  S
Cu196       N204   2.069       .  S
N197        C201   1.345       .  A
N197        N198   1.318       .  A
N198        C199   1.343       .  A
C199        C200   1.388       .  A
C199        H202   1.082       .  S
C200        C815   1.485       .  S
C200        C201   1.390       .  A
C201        H203   1.082       .  S
N204        C208   1.345       .  A
N204        N205   1.326       .  A
N205        C206   1.356       .  A
C206        C207   1.394       .  A
C206        H209   1.082       .  S
C207        C208   1.377       .  A
C207        C797   1.456       .  S
C208        H210   1.082       .  S
N211        C215   1.356       .  A
N211        N212   1.326       .  A
N211       Cu219   2.136       .  S
N212        C213   1.344       .  A
N212       Cu218   2.064       .  S
C213        C214   1.375       .  A
C213        H216   1.082       .  S
C214        C215   1.394       .  A
C214        C877   1.454       .  S
C215        H217   1.082       .  S
Cu218       N221   2.063       .  S
Cu219       N229   2.136       .  S
Cu220       N222   2.064       .  S
Cu220       N228   2.065       .  S
N221        C225   1.344       .  A
N221        N222   1.317       .  A
N222        C223   1.342       .  A
C223        C224   1.390       .  A
C223        H226   1.080       .  S
C224        C805   1.487       .  S
C224        C225   1.390       .  A
C225        H227   1.080       .  S
N228        C232   1.345       .  A
N228        N229   1.325       .  A
N229        C230   1.357       .  A
C230        C231   1.394       .  A
C230        H233   1.082       .  S
C231        C232   1.376       .  A
C231        C795   1.456       .  S
C232        H234   1.082       .  S
N235        C239   1.359       .  A
N235        N236   1.322       .  A
N235       Cu243   2.142       .  S
N236        C237   1.339       .  A
N236       Cu242   2.030       .  S
C237        C238   1.369       .  A
C237        H240   1.082       .  S
C238        C239   1.400       .  A
C238        C782   1.452       .  S
C239        H241   1.082       .  S
Cu242       N245   2.031       .  S
Cu243       N253   2.145       .  S
Cu244       N246   2.082       .  S
Cu244       N252   2.085       .  S
N245        C249   1.338       .  A
N245        N246   1.316       .  A
N246        C247   1.348       .  A
C247        C248   1.393       .  A
C247        H250   1.081       .  S
C248        C789   1.479       .  S
C248        C249   1.380       .  A
C249        H251   1.082       .  S
N252        C256   1.346       .  A
N252        N253   1.329       .  A
N253        C254   1.357       .  A
C254        C255   1.393       .  A
C254        H257   1.082       .  S
C255        C256   1.377       .  A
C255        C783   1.458       .  S
C256        H258   1.082       .  S
C259        N260   1.360       .  A
C259        N264   1.355       .  A
C259        C786   1.481       .  S
N260        C261   1.360       .  A
C261        N262   1.360       .  A
C261        C772   1.484       .  S
N262        C263   1.358       .  A
C263        N264   1.356       .  A
C263        C762   1.480   1_565  S
N265        C269   1.356       .  A
N265        N266   1.326       .  A
N265       Cu273   2.136       .  S
N266        C267   1.345       .  A
N266       Cu272   2.070       .  S
C267        C268   1.377       .  A
C267        H270   1.082       .  S
C268        C269   1.394       .  A
C268        C798   1.456       .  S
C269        H271   1.082       .  S
Cu272       N275   2.068       .  S
Cu273       N283   2.135       .  S
Cu274       N276   2.063       .  S
Cu274       N282   2.065       .  S
N275        C279   1.344       .  A
N275        N276   1.318       .  A
N276        C277   1.342       .  A
C277        C278   1.388       .  A
C277        H280   1.081       .  S
C278        C765   1.483       .  S
C278        C279   1.390       .  A
C279        H281   1.081       .  S
N282        C286   1.345       .  A
N282        N283   1.325       .  A
N283        C284   1.356       .  A
C284        C285   1.394       .  A
C284        H287   1.082       .  S
C285        C286   1.376       .  A
C285        C760   1.455       .  S
C286        H288   1.082       .  S
N289        C293   1.359       .  A
N289        N290   1.326       .  A
N289       Cu297   2.144       .  S
N290        C291   1.345       .  A
N290       Cu296   2.072       .  S
C291        C292   1.377       .  A
C291        H294   1.082       .  S
C292        C293   1.395       .  A
C292        C757   1.459       .  S
C293        H295   1.081       .  S
Cu296       N299   2.070       .  S
Cu297       N307   2.145       .  S
Cu298       N300   2.057       .  S
Cu298       N306   2.058       .  S
N299        C303   1.344       .  A
N299        N300   1.317       .  A
N300        C301   1.343       .  A
C301        C302   1.389       .  A
C301        H304   1.081   1_556  S
C302        C775   1.487   1_556  S
C302        C303   1.391       .  A
C303        H305   1.081       .  S
N306        C310   1.342       .  A
N306        N307   1.325       .  A
N307        C308   1.359       .  A
C308        C309   1.398       .  A
C308        H311   1.082       .  S
C309        C310   1.373       .  A
C309        C822   1.456       .  S
C310        H312   1.082       .  S
N313        C317   1.358       .  A
N313        N314   1.322       .  A
N313       Cu321   2.135       .  S
N314        C315   1.343       .  A
N314       Cu320   2.052       .  S
C315        C316   1.375       .  A
C315        H318   1.082       .  S
C316        C317   1.397       .  A
C316        C745   1.456       .  S
C317        H319   1.082       .  S
Cu320       N323   2.050       .  S
Cu321       N331   2.137       .  S
Cu322       N324   2.075       .  S
Cu322       N330   2.078       .  S
N323        C327   1.337   1_455  A
N323        N324   1.319       .  A
N324        C325   1.349   1_455  A
C325        C326   1.391       .  A
C325        H328   1.081   1_655  S
C326        C751   1.481       .  S
C326        C327   1.383       .  A
C327        H329   1.081       .  S
N330        C334   1.347       .  A
N330        N331   1.327       .  A
N331        C332   1.355       .  A
C332        C333   1.393       .  A
C332        H335   1.082       .  S
C333        C334   1.378       .  A
C333        C796   1.456       .  S
C334        H336   1.082       .  S
C337        N338   1.356       .  A
C337        N342   1.357       .  A
C337        C748   1.477       .  S
N338        C339   1.354       .  A
C339        N340   1.359       .  A
C339        C726   1.480       .  S
N340        C341   1.360       .  A
C341        N342   1.361       .  A
C341        C736   1.480       .  S
N343        C347   1.361       .  A
N343        N344   1.322       .  A
N343       Cu351   2.136       .  S
N344        C345   1.340       .  A
N344       Cu350   2.049       .  S
C345        C346   1.373       .  A
C345        H348   1.082       .  S
C346        C347   1.399       .  A
C346        C799   1.456       .  S
C347        H349   1.082       .  S
Cu350       N353   2.048       .  S
Cu351       N361   2.139       .  S
Cu352       N354   2.071       .  S
Cu352       N360   2.074       .  S
N353        C357   1.340   1_554  A
N353        N354   1.318       .  A
N354        C355   1.346       .  A
C355        C356   1.391   1_554  A
C355        H358   1.081   1_554  S
C356        C729   1.479       .  S
C356        C357   1.383       .  A
C357        H359   1.081       .  S
N360        C364   1.345       .  A
N360        N361   1.327       .  A
N361        C362   1.356       .  A
C362        C363   1.394       .  A
C362        H365   1.082       .  S
C363        C364   1.377       .  A
C363        C835   1.456       .  S
C364        H366   1.083       .  S
N367        C371   1.359       .  A
N367        N368   1.323       .  A
N367       Cu375   2.135       .  S
N368        C369   1.340       .  A
N368       Cu374   2.054       .  S
C369        C370   1.374       .  A
C369        H372   1.082       .  S
C370        C371   1.398       .  A
C370        C860   1.455       .  S
C371        H373   1.082       .  S
Cu374       N377   2.056       .  S
Cu375       N385   2.136       .  S
Cu376       N378   2.064       .  S
Cu376       N384   2.066       .  S
N377        C381   1.341       .  A
N377        N378   1.317       .  A
N378        C379   1.344       .  A
C379        C380   1.390       .  A
C379        H382   1.081       .  S
C380        C739   1.484       .  S
C380        C381   1.388       .  A
C381        H383   1.080       .  S
N384        C388   1.344       .  A
N384        N385   1.326       .  A
N385        C386   1.356       .  A
C386        C387   1.394       .  A
C386        H389   1.082       .  S
C387        C388   1.376       .  A
C387        C724   1.454       .  S
C388        H390   1.082       .  S
N391        C395   1.359       .  A
N391        N392   1.323       .  A
N391       Cu399   2.135   1_455  S
N392        C393   1.343       .  A
N392       Cu398   2.058       .  S
C393        C394   1.376       .  A
C393        H396   1.082       .  S
C394        C395   1.398       .  A
C394        C758   1.458       .  S
C395        H397   1.081       .  S
Cu398       N401   2.056       .  S
Cu399       N409   2.136       .  S
Cu400       N402   2.063       .  S
Cu400       N408   2.065       .  S
N401        C405   1.339       .  A
N401        N402   1.317   1_455  A
N402        C403   1.345   1_565  A
C403        C404   1.393   1_655  A
C403        H406   1.081       .  S
C404        C714   1.488       .  S
C404        C405   1.389   1_545  A
C405        H407   1.080       .  S
N408        C412   1.344       .  A
N408        N409   1.326       .  A
N409        C410   1.356       .  A
C410        C411   1.394       .  A
C410        H413   1.082       .  S
C411        C412   1.375       .  A
C411        C712   1.453       .  S
C412        H414   1.082   1_565  S
C415        N416   1.358       .  A
C415        N420   1.359   1_556  A
C415        C702   1.477   1_556  S
N416        C417   1.357   1_655  A
C417        N418   1.358       .  A
C417        C717   1.481       .  S
N418        C419   1.357       .  A
C419        N420   1.361   1_456  A
C419        C692   1.477       .  S
N421        C425   1.357       .  A
N421        N422   1.322       .  A
N421       Cu429   2.125   1_545  S
N422        C423   1.342       .  A
N422       Cu428   2.051       .  S
C423        C424   1.374       .  A
C423        H426   1.082       .  S
C424        C425   1.396       .  A
C424        C723   1.453       .  S
C425        H427   1.082       .  S
Cu428       N431   2.050   1_546  S
Cu429       N439   2.128       .  S
Cu430       N432   2.088       .  S
Cu430       N438   2.091       .  S
N431        C435   1.338       .  A
N431        N432   1.318       .  A
N432        C433   1.350       .  A
C433        C434   1.396       .  A
C433        H436   1.081       .  S
C434        C705   1.491       .  S
C434        C435   1.386       .  A
C435        H437   1.080   1_565  S
N438        C442   1.349       .  A
N438        N439   1.327   1_554  A
N439        C440   1.354       .  A
C440        C441   1.390   1_556  A
C440        H443   1.082       .  S
C441        C442   1.381       .  A
C441        C784   1.458       .  S
C442        H444   1.082       .  S
N445        C449   1.358       .  A
N445        N446   1.324       .  A
N445       Cu453   2.134   1_554  S
N446        C447   1.344       .  A
N446       Cu452   2.060   1_655  S
C447        C448   1.376       .  A
C447        H450   1.082       .  S
C448        C449   1.395       .  A
C448        C689   1.457       .  S
C449        H451   1.081       .  S
Cu452       N455   2.054       .  S
Cu453       N463   2.135   1_655  S
Cu454       N456   2.073       .  S
Cu454       N462   2.075       .  S
N455        C459   1.340       .  A
N455        N456   1.317   1_554  A
N456        C457   1.345       .  A
C457        C458   1.394   1_556  A
C457        H460   1.078       .  S
C458        C695   1.489       .  S
C458        C459   1.389       .  A
C459        H461   1.080       .  S
N462        C466   1.347       .  A
N462        N463   1.326       .  A
N463        C464   1.355       .  A
C464        C465   1.393       .  A
C464        H467   1.082       .  S
C465        C466   1.379       .  A
C465        C746   1.457       .  S
C466        H468   1.082       .  S
N469        C473   1.358       .  A
N469        N470   1.322   1_545  A
N469       Cu477   2.129       .  S
N470        C471   1.341       .  A
N470       Cu476   2.050       .  S
C471        C472   1.373       .  A
C471        H474   1.082       .  S
C472        C473   1.396   1_565  A
C472        C711   1.453       .  S
C473        H475   1.082       .  S
Cu476       N479   2.047       .  S
Cu477       N487   2.132       .  S
Cu478       N480   2.079       .  S
Cu478       N486   2.082   1_565  S
N479        C483   1.338       .  A
N479        N480   1.317       .  A
N480        C481   1.348       .  A
C481        C482   1.395       .  A
C481        H484   1.082       .  S
C482        C680   1.488       .  S
C482        C483   1.386       .  A
C483        H485   1.081       .  S
N486        C490   1.347       .  A
N486        N487   1.327       .  A
N487        C488   1.355       .  A
C488        C489   1.391       .  A
C488        H491   1.082       .  S
C489        C490   1.379       .  A
C489        C834   1.456       .  S
C490        H492   1.082       .  S
C493        N494   1.357       .  A
C493        N498   1.360       .  A
C493        C660   1.477       .  S
N494        C495   1.357       .  A
C495        N496   1.356       .  A
C495        C683   1.479       .  S
N496        C497   1.359       .  A
C497        N498   1.360       .  A
C497        C670   1.476       .  S
N499        C503   1.359       .  A
N499        N500   1.323       .  A
N499       Cu507   2.136       .  S
N500        C501   1.341       .  A
N500       Cu506   2.052       .  S
C501        C502   1.374       .  A
C501        H504   1.082       .  S
C502        C503   1.399       .  A
C502        C838   1.456       .  S
C503        H505   1.082       .  S
Cu506       N509   2.054       .  S
Cu507       N517   2.137       .  S
Cu508       N510   2.070       .  S
Cu508       N516   2.072       .  S
N509        C513   1.341   1_455  A
N509        N510   1.318       .  A
N510        C511   1.345   1_455  A
C511        C512   1.391       .  A
C511        H514   1.081       .  S
C512        C663   1.484       .  S
C512        C513   1.386       .  A
C513        H515   1.081       .  S
N516        C520   1.347       .  A
N516        N517   1.325       .  A
N517        C518   1.355       .  A
C518        C519   1.394       .  A
C518        H521   1.082       .  S
C519        C520   1.378       .  A
C519        C658   1.457       .  S
C520        H522   1.082       .  S
N523        C527   1.360       .  A
N523        N524   1.324       .  A
N523       Cu531   2.141       .  S
N524        C525   1.342       .  A
N524       Cu530   2.057       .  S
C525        C526   1.375       .  A
C525        H528   1.082       .  S
C526        C527   1.398       .  A
C526        C655   1.459       .  S
C527        H529   1.081       .  S
Cu530       N533   2.056       .  S
Cu531       N541   2.142       .  S
Cu532       N534   2.067       .  S
Cu532       N540   2.069       .  S
N533        C537   1.339       .  A
N533        N534   1.317       .  A
N534        C535   1.346       .  A
C535        C536   1.393       .  A
C535        H538   1.081       .  S
C536        C673   1.488       .  S
C536        C537   1.389       .  A
C537        H539   1.080       .  S
N540        C544   1.344       .  A
N540        N541   1.326       .  A
N541        C542   1.358       .  A
C542        C543   1.395       .  A
C542        H545   1.082       .  S
C543        C544   1.375       .  A
C543        C690   1.457       .  S
C544        H546   1.082       .  S
N547        C551   1.360       .  A
N547        N548   1.326       .  A
N547       Cu555   2.147       .  S
N548        C549   1.342       .  A
N548       Cu554   2.065       .  S
C549        C550   1.375       .  A
C549        H552   1.082       .  S
C550        C551   1.397       .  A
C550        C656   1.459       .  S
C551        H553   1.081       .  S
Cu554       N557   2.063       .  S
Cu555       N565   2.147       .  S
Cu556       N558   2.061       .  S
Cu556       N564   2.063       .  S
N557        C561   1.344       .  A
N557        N558   1.317       .  A
N558        C559   1.342       .  A
C559        C560   1.388       .  A
C559        H562   1.082       .  S
C560        C646   1.482       .  S
C560        C561   1.389       .  A
C561        H563   1.081       .  S
N564        C568   1.344       .  A
N564        N565   1.326       .  A
N565        C566   1.359   1_565  A
C566        C567   1.397       .  A
C566        H569   1.082       .  S
C567        C568   1.374   1_545  A
C567        C875   1.457       .  S
C568        H570   1.082       .  S
C571        N572   1.358       .  A
C571        N576   1.357       .  A
C571        C626   1.482       .  S
N572        C573   1.359       .  A
C573        N574   1.358       .  A
C573        C649   1.482       .  S
N574        C575   1.358       .  A
C575        N576   1.358       .  A
C575        C639   1.480       .  S
N577        C581   1.357       .  A
N577        N578   1.326       .  A
N577       Cu585   2.142       .  S
N578        C579   1.344       .  A
N578       Cu584   2.064       .  S
C579        C580   1.374       .  A
C579        H582   1.082       .  S
C580        C581   1.395       .  A
C580        C759   1.455       .  S
C581        H583   1.082       .  S
Cu584       N587   2.062       .  S
Cu585       N595   2.142       .  S
Cu586       N588   2.058       .  S
Cu586       N594   2.058       .  S
N587        C591   1.344       .  A
N587        N588   1.317       .  A
N588        C589   1.343       .  A
C589        C590   1.386       .  A
C589        H592   1.081       .  S
C590        C629   1.480       .  S
C590        C591   1.387       .  A
C591        H593   1.081       .  S
N594        C598   1.342       .  A
N594        N595   1.325       .  A
N595        C596   1.359       .  A
C596        C597   1.397       .  A
C596        H599   1.082       .  S
C597        C598   1.373       .  A
C597        C657   1.455       .  S
C598        H600   1.082       .  S
N601        C605   1.358       .  A
N601        N602   1.326       .  A
N601       Cu609   2.148       .  S
N602        C603   1.343       .  A
N602       Cu608   2.058       .  S
C603        C604   1.373       .  A
C603        H606   1.082       .  S
C604        C605   1.396       .  A
C604        C781   1.453       .  S
C605        H607   1.082       .  S
Cu608       N611   2.058       .  S
Cu609       N619   2.148       .  S
Cu610       N612   2.057       .  S
Cu610       N618   2.058       .  S
N611        C615   1.343       .  A
N611        N612   1.317       .  A
N612        C613   1.342       .  A
C613        C614   1.387       .  A
C613        H616   1.081       .  S
C614        C636   1.480       .  S
C614        C615   1.388       .  A
C615        H617   1.082       .  S
N618        C622   1.343       .  A
N618        N619   1.325       .  A
N619        C620   1.359       .  A
C620        C621   1.398       .  A
C620        H623   1.082       .  S
C621        C622   1.374       .  A
C621        C881   1.458       .  S
C622        H624   1.082       .  S
C625        C626   1.406       .  A
C625        C630   1.397       .  A
C625        H631   1.082       .  S
C626        C627   1.406       .  A
C627        C628   1.397       .  A
C627        H632   1.083       .  S
C628        C629   1.405       .  A
C628        H633   1.081       .  S
C629        C630   1.404       .  A
C630        H634   1.083       .  S
C635        C636   1.405       .  A
C635        C640   1.395       .  A
C635        H641   1.082       .  S
C636        C637   1.405       .  A
C637        C638   1.397       .  A
C637        H642   1.082       .  S
C638        C639   1.406       .  A
C638        H643   1.083       .  S
C639        C640   1.406       .  A
C640        H644   1.082       .  S
C645        C646   1.405       .  A
C645        C650   1.397       .  A
C645        H651   1.082       .  S
C646        C647   1.405       .  A
C647        C648   1.397       .  A
C647        H652   1.083       .  S
C648        C649   1.406       .  A
C648        H653   1.082       .  S
C649        C650   1.405       .  A
C650        H654   1.084       .  S
C655        C656   1.219       .  T
C657        C658   1.218       .  T
C659        C660   1.405       .  A
C659        C664   1.397       .  A
C659        H665   1.084       .  S
C660        C661   1.402       .  A
C661        C662   1.397       .  A
C661        H666   1.083       .  S
C662        C663   1.409       .  A
C662        H667   1.082       .  S
C663        C664   1.404       .  A
C664        H668   1.081       .  S
C669        C670   1.401       .  A
C669        C674   1.393       .  A
C669        H675   1.083       .  S
C670        C671   1.405       .  A
C671        C672   1.401       .  A
C671        H676   1.084       .  S
C672        C673   1.408       .  A
C672        H677   1.080       .  S
C673        C674   1.407       .  A
C674        H678   1.081       .  S
C679        C680   1.406       .  A
C679        C684   1.400       .  A
C679        H685   1.082       .  S
C680        C681   1.409       .  A
C681        C682   1.393       .  A
C681        H686   1.080       .  S
C682        C683   1.402       .  A
C682        H687   1.083       .  S
C683        C684   1.406       .  A
C684        H688   1.083       .  S
C689        C690   1.218       .  T
C691        C692   1.405       .  A
C691        C696   1.398       .  A
C691        H697   1.083       .  S
C692        C693   1.401   1_556  A
C693        C694   1.396       .  A
C693        H698   1.083       .  S
C694        C695   1.409       .  A
C694        H699   1.081       .  S
C695        C696   1.407   1_554  A
C696        H700   1.080       .  S
C701        C702   1.400   1_545  A
C701        C706   1.394       .  A
C701        H707   1.083   1_554  S
C702        C703   1.406       .  A
C703        C704   1.403       .  A
C703        H708   1.084       .  S
C704        C705   1.408       .  A
C704        H709   1.081       .  S
C705        C706   1.409   1_565  A
C706        H710   1.081       .  S
C711        C712   1.216       .  T
C713        C714   1.408   1_565  A
C713        C718   1.395       .  A
C713        H719   1.081       .  S
C714        C715   1.407   1_455  A
C715        C716   1.398       .  A
C715        H720   1.080       .  S
C716        C717   1.406   1_645  A
C716        H721   1.084       .  S
C717        C718   1.404       .  A
C718        H722   1.082       .  S
C723        C724   1.216       .  T
C725        C726   1.403       .  A
C725        C730   1.395       .  A
C725        H731   1.084       .  S
C726        C727   1.408       .  A
C727        C728   1.397       .  A
C727        H732   1.082       .  S
C728        C729   1.402       .  A
C728        H733   1.083       .  S
C729        C730   1.407       .  A
C730        H734   1.081       .  S
C735        C736   1.403       .  A
C735        C740   1.395       .  A
C735        H741   1.083       .  S
C736        C737   1.406       .  A
C737        C738   1.398       .  A
C737        H742   1.082       .  S
C738        C739   1.405       .  A
C738        H743   1.083       .  S
C739        C740   1.407       .  A
C740        H744   1.080       .  S
C745        C746   1.218       .  T
C747        C748   1.402       .  A
C747        C752   1.390       .  A
C747        H753   1.083       .  S
C748        C749   1.407       .  A
C749        C750   1.403       .  A
C749        H754   1.083       .  S
C750        C751   1.406       .  A
C750        H755   1.082       .  S
C751        C752   1.406       .  A
C752        H756   1.081       .  S
C757        C758   1.219       .  T
C759        C760   1.217   1_565  T
C761        C762   1.406       .  A
C761        C766   1.395       .  A
C761        H767   1.083       .  S
C762        C763   1.405       .  A
C763        C764   1.397   1_554  A
C763        H768   1.083   1_545  S
C764        C765   1.406       .  A
C764        H769   1.082       .  S
C765        C766   1.405   1_556  A
C766        H770   1.081       .  S
C771        C772   1.406       .  A
C771        C776   1.398       .  A
C771        H777   1.083       .  S
C772        C773   1.406       .  A
C773        C774   1.397       .  A
C773        H778   1.083       .  S
C774        C775   1.406       .  A
C774        H779   1.081   1_554  S
C775        C776   1.408       .  A
C776        H780   1.081       .  S
C781        C782   1.216       .  T
C783        C784   1.218       .  T
C785        C786   1.403       .  A
C785        C790   1.395       .  A
C785        H791   1.084       .  S
C786        C787   1.409       .  A
C787        C788   1.397       .  A
C787        H792   1.082       .  S
C788        C789   1.401       .  A
C788        H793   1.084       .  S
C789        C790   1.407       .  A
C790        H794   1.080       .  S
C795        C796   1.217       .  T
C797        C798   1.217       .  T
C799        C800   1.218       .  T
C801        C802   1.405       .  A
C801        C806   1.398       .  A
C801        H807   1.084       .  S
C802        C803   1.406       .  A
C803        C804   1.396       .  A
C803        H808   1.082       .  S
C804        C805   1.406       .  A
C804        H809   1.082       .  S
C805        C806   1.407       .  A
C806        H810   1.080       .  S
C811        C812   1.405       .  A
C811        C816   1.398       .  A
C811        H817   1.083       .  S
C812        C813   1.405       .  A
C813        C814   1.397       .  A
C813        H818   1.083       .  S
C814        C815   1.406       .  A
C814        H819   1.081       .  S
C815        C816   1.406       .  A
C816        H820   1.083       .  S
C821        C822   1.218       .  T
C823        C824   1.406       .  A
C823        C828   1.397       .  A
C823        H829   1.081       .  S
C824        C825   1.407       .  A
C825        C826   1.398       .  A
C825        H830   1.081       .  S
C826        C827   1.406       .  A
C826        H831   1.083       .  S
C827        C828   1.406       .  A
C828        H832   1.083       .  S
C833        C834   1.217       .  T
C835        C836   1.217       .  T
C837        C838   1.218       .  T
C839        C840   1.406       .  A
C839        C844   1.396       .  A
C839        H845   1.081       .  S
C840        C841   1.407       .  A
C841        C842   1.398       .  A
C841        H846   1.081       .  S
C842        C843   1.406       .  A
C842        H847   1.083       .  S
C843        C844   1.405       .  A
C844        H848   1.082       .  S
C849        C850   1.405       .  A
C849        C854   1.395       .  A
C849        H855   1.083       .  S
C850        C851   1.406       .  A
C851        C852   1.400       .  A
C851        H856   1.083       .  S
C852        C853   1.407       .  A
C852        H857   1.082       .  S
C853        C854   1.406       .  A
C854        H858   1.080       .  S
C859        C860   1.218       .  T
C861        C862   1.406       .  A
C861        C866   1.398       .  A
C861        H867   1.081       .  S
C862        C863   1.405       .  A
C863        C864   1.396       .  A
C863        H868   1.083       .  S
C864        C865   1.407       .  A
C864        H869   1.082       .  S
C865        C866   1.406       .  A
C866        H870   1.083       .  S
C871        C872   1.220       .  T
C873        C874   1.219       .  T
C875        C876   1.218       .  T
C877        C878   1.216       .  T
C879        C880   1.218       .  T
C881        C882   1.219       .  T
C883        C884   1.406       .  A
C883        C888   1.398       .  A
C883        H889   1.082       .  S
C884        C885   1.407       .  A
C885        C886   1.395       .  A
C885        H890   1.079       .  S
C886        C887   1.404       .  A
C886        H891   1.084       .  S
C887        C888   1.406       .  A
C888        H892   1.082       .  S
C893        C894   1.408       .  A
C893        C898   1.399       .  A
C893        H899   1.081       .  S
C894        C895   1.406       .  A
C895        C896   1.396       .  A
C895        H900   1.080       .  S
C896        C897   1.405       .  A
C896        H901   1.083       .  S
C897        C898   1.406       .  A
C898        H902   1.083       .  S
C903        C904   1.407       .  A
C903        C908   1.396       .  A
C903        H909   1.083       .  S
C904        C905   1.404       .  A
C905        C906   1.397       .  A
C905        H910   1.083       .  S
C906        C907   1.408       .  A
C906        H911   1.081       .  S
C907        C908   1.404       .  A
C908        H912   1.081       .  S
