geometry optimzed in LAMMPS
_audit_creation_date              2020-11-30 
_audit_creation_method            'lammps2cif' 
_symmetry_space_group_name_H-M    'P1' 
_symmetry_Int_Tables_number       1 
_symmetry_cell_setting            triclinic 
loop_ 
_symmetry_equiv_pos_as_xyz 
  x,y,z 
_cell_length_a                    37.4085419 
_cell_length_b                    37.33941139687201 
_cell_length_c                    73.03609733378183 
_cell_angle_alpha                 90.03112173638021 
_cell_angle_beta                  90.05383998847628 
_cell_angle_gamma                 119.75816550730893 
loop_ 
_atom_site_label 
_atom_site_type_symbol 
_atom_site_fract_x 
_atom_site_fract_y 
_atom_site_fract_z 
_atom_site_charge 
O1          O  0.09040088  0.29788297  0.32375597    -0.88500
C2          C  0.18882832  0.37208973  0.29164194     0.87600
Mg3        Mg  0.07858312  0.31925306  0.34914997     1.58100
O4          O  0.19780151  0.29677657  0.31716318    -0.88200
O5          O  0.10026932  0.24841027  0.31376550    -0.75500
C6          C  0.25687616  0.41057039  0.39421338     0.92600
O7          O  0.13157762  0.39554161  0.31831055    -0.75300
O8          O  0.22510639  0.41458933  0.39249646    -0.82800
Mg9        Mg  0.10128302  0.33709778  0.30030516     1.58000
C10         C  0.30823727  0.33257941  0.34450186     0.92500
O11         O  0.07012356  0.28487798  0.27892884    -0.81100
H12         H  0.17834173  0.23783019  0.32345282    -0.06500
C13         C  0.25368435  0.41203154  0.33985426     0.87500
O14         O  0.10885364  0.28936652  0.36576416    -0.75600
O15         O  0.15920181  0.33889338  0.29646164    -0.88400
O16         O  0.29260477  0.32909178  0.32866601    -0.81200
C17         C  0.24674108  0.31177250  0.27372001     0.92700
C18         C  0.07977954  0.26393612  0.26824973     0.92500
Mg19       Mg  0.23164661  0.33599436  0.36265777     1.58000
O20         O  0.26407704  0.38850790  0.38318744    -0.81100
O21         O  0.20070595  0.27712424  0.34506114    -0.75400
O22         O  0.20824317  0.29930783  0.27341915    -0.81200
O23         O  0.03935399  0.33393210  0.30459023    -0.82900
O24         O  0.12641721  0.37408286  0.38975031    -0.81200
C25         C  0.19204963  0.26935552  0.32819346     0.86900
O26         O  0.17457375  0.33474293  0.36670973    -0.88400
O27         O  0.24277173  0.37498778  0.33907905    -0.88500
O28         O  0.23372402  0.42495089  0.34913338    -0.75500
Mg29       Mg  0.15600215  0.27935505  0.29455112     1.58000
O30         O  0.26887834  0.33038725  0.28756361    -0.82900
H31         H  0.05300781  0.23885997  0.33045961    -0.06600
O32         O  0.13588484  0.37634809  0.34614371    -0.88200
H33         H  0.15417913  0.43504397  0.33985042    -0.06500
H34         H  0.15067878  0.28104024  0.38005772    -0.06600
C35         C  0.14083527  0.40353566  0.33513160     0.86900
C36         C  0.07973695  0.26091430  0.32287631     0.87500
C37         C  0.14513763  0.30130716  0.37142692     0.87500
H38         H  0.28016386  0.43379862  0.33205318    -0.06600
O39         O  0.22517453  0.38339775  0.29705242    -0.75600
Mg40       Mg  0.17865311  0.39458401  0.36872133     1.58000
H41         H  0.18351743  0.39251796  0.28301586    -0.06600
C42         C  0.02409931  0.34011851  0.31903070     0.92500
O43         O  0.06545968  0.34141019  0.37579185    -0.82900
C44         C  0.08762290  0.36013011  0.38962030     0.92600
O45         O  0.11166600  0.26072275  0.27088910    -0.82900
Mg46       Mg  0.25514503  0.35338510  0.31393517     1.58200
O47         O  0.04021087  0.34329628  0.33475287    -0.81200
O48         O  0.29259245  0.33874418  0.35873555    -0.82900
C49         C  0.30891606  0.12124034  0.20562430    -0.11000
C50         C  0.29491157  0.14669847  0.21296632    -0.04800
C51         C  0.30466216  0.18452029  0.20491788    -0.11000
C52         C  0.32902962  0.19739878  0.18886043     0.10000
C53         C  0.34281443  0.17154659  0.18101255    -0.02800
C54         C  0.33261986  0.13326702  0.18936554     0.09800
C55         C  0.34622945  0.10802130  0.18120665    -0.12800
C56         C  0.36910791  0.11987883  0.16503644    -0.12800
C57         C  0.37975834  0.15770082  0.15662101     0.09800
C58         C  0.36679906  0.18398897  0.16474464    -0.02800
C59         C  0.33939128  0.23505425  0.18027894    -0.12900
C60         C  0.36315491  0.24738464  0.16439589    -0.12900
C61         C  0.37715148  0.22237545  0.15642691     0.10000
C62         C  0.40060383  0.23419553  0.14013349    -0.11000
C63         C  0.41284294  0.20791309  0.13233484    -0.04800
C64         C  0.40253716  0.16992447  0.14012850    -0.11000
H65         H  0.33881948  0.07859264  0.18716902     0.07200
H66         H  0.37851565  0.09920796  0.15917563     0.07200
H67         H  0.32903719  0.25530442  0.18572886     0.07400
H68         H  0.37026692  0.27661886  0.15830970     0.07400
H69         H  0.27698314  0.13740806  0.22549183     0.03900
H70         H  0.43014442  0.21689308  0.11961981     0.03900
C71         C  0.90925536  0.16252853  0.19176529    -0.11000
C72         C  0.88328581  0.12654760  0.20138577    -0.04800
C73         C  0.84414623  0.09812428  0.19492851    -0.11000
C74         C  0.83097515  0.10475468  0.17768976     0.10000
C75         C  0.85729104  0.14088443  0.16754180    -0.02800
C76         C  0.89649338  0.17003307  0.17466868     0.09800
C77         C  0.92177411  0.20582576  0.16457321    -0.12800
C78         C  0.90853099  0.21342524  0.14793979    -0.12800
C79         C  0.86970824  0.18523861  0.14066523     0.09800
C80         C  0.84395724  0.14841682  0.15046420    -0.02800
C81         C  0.79247225  0.07626165  0.17028852    -0.12900
C82         C  0.77965726  0.08333700  0.15338497    -0.12900
C83         C  0.80472243  0.11935552  0.14333566     0.10000
C84         C  0.79148756  0.12739344  0.12643176    -0.11000
C85         C  0.81682222  0.16433808  0.11719470    -0.04800
C86         C  0.85559194  0.19322701  0.12401245    -0.11000
H87         H  0.95201446  0.22836879  0.16951629     0.07200
H88         H  0.92899787  0.24181314  0.14088532     0.07200
H89         H  0.77200593  0.04808271  0.17748987     0.07400
H90         H  0.74964601  0.06050692  0.14833228     0.07400
H91         H  0.89271255  0.12190649  0.21483138     0.03900
H92         H  0.80645160  0.17041921  0.10428948     0.03900
O93         O  0.24197197  0.87371344  0.33700708    -0.88500
C94         C  0.14909264  0.83770563  0.37428964     0.87600
Mg95       Mg  0.24329629  0.90424158  0.31179715     1.58100
O96         O  0.14675382  0.75720439  0.34809317    -0.88200
O97         O  0.24353150  0.81889865  0.34636025    -0.75500
C98         C  0.05542150  0.79215568  0.27609857     0.92600
O99         O  0.18904305  0.91750370  0.34597023    -0.75300
O100        O  0.08534632  0.82912742  0.27567515    -0.82800
Mg101      Mg  0.23112888  0.89907745  0.36150703     1.58000
C102        C  0.03283968  0.66986407  0.32557303     0.92500
O103        O  0.27391888  0.88746461  0.38010092    -0.81100
H104        H  0.17263682  0.72445851  0.33955064    -0.06500
C105        C  0.07262578  0.80155974  0.32958587     0.87500
O106        O  0.21657600  0.84320962  0.29583638    -0.75600
O107        O  0.18004893  0.83895035  0.36764749    -0.88400
O108        O  0.05135619  0.68325837  0.34083736    -0.81200
C109        C  0.11097872  0.72431181  0.39366595     0.92700
C110        C  0.27301199  0.85996613  0.39074498     0.92500
Mg111      Mg  0.09844067  0.75402146  0.30483422     1.58000
O112        O  0.05446819  0.76588591  0.28748590    -0.81100
O113        O  0.14055213  0.73493383  0.31987552    -0.75400
O114        O  0.14826605  0.75318972  0.39194336    -0.81200
O115        O  0.28611828  0.96231154  0.35511766    -0.82900
O116        O  0.18174504  0.89912140  0.27358203    -0.81200
C117        C  0.15381230  0.73803794  0.33616076     0.86900
O118        O  0.14962910  0.81352970  0.29838953    -0.88400
O119        O  0.08829477  0.77921159  0.32940421    -0.88500
O120        O  0.08618573  0.83341216  0.31952817    -0.75500
Mg121      Mg  0.19372329  0.78889236  0.36850241     1.58000
O122        O  0.08456218  0.71570977  0.38098885    -0.82900
H123        H  0.28307927  0.85887916  0.32754975    -0.06600
O124        O  0.18285217  0.89507021  0.31778426    -0.88200
H125        H  0.15669379  0.92757438  0.32628976    -0.06500
H126        H  0.17694950  0.78934920  0.28327488    -0.06600
C127        C  0.17566722  0.91417171  0.32969570     0.86900
C128        C  0.25757252  0.85131458  0.33668325     0.87500
C129        C  0.18057657  0.81440073  0.29196276     0.87500
H130        H  0.04731114  0.79430450  0.33879508    -0.06600
O131        O  0.11311278  0.80865879  0.37055950    -0.75600
Mg132      Mg  0.13598535  0.86334612  0.29718323     1.58000
H133        H  0.15267620  0.86259129  0.38307992    -0.06600
C134        C  0.29673205  0.98374603  0.34051879     0.92500
O135        O  0.24486766  0.93603496  0.28520973    -0.82900
C136        C  0.21914670  0.92808938  0.27227705     0.92600
O137        O  0.24434025  0.82245353  0.38985479    -0.82900
Mg138      Mg  0.08640939  0.74786845  0.35443905     1.58200
O139        O  0.27868051  0.96889939  0.32526907    -0.81200
O140        O  0.04366043  0.69197121  0.31123709    -0.82900
O141        O  0.63790930  0.75740508  0.34237494    -0.88500
C142        C  0.70415058  0.85653082  0.37561386     0.87600
Mg143      Mg  0.66359682  0.74985344  0.31744810     1.58100
O144        O  0.62751149  0.86110333  0.34969941    -0.88200
O145        O  0.58533534  0.76359046  0.35113718    -0.75500
C146        C  0.74732603  0.93153954  0.27506387     0.92600
O147        O  0.73563255  0.80557268  0.34997666    -0.75300
O148        O  0.75249501  0.90070143  0.27761004    -0.82800
Mg149      Mg  0.67572201  0.77048143  0.36647369     1.58000
C150        C  0.65403511  0.97071810  0.32373657     0.92500
O151        O  0.62166643  0.73411472  0.38593908    -0.81100
H152        H  0.56851049  0.83824468  0.34258430    -0.06500
C153        C  0.74362514  0.92596014  0.32939253     0.87500
O154        O  0.63170350  0.77839865  0.30076135    -0.75600
O155        O  0.67244407  0.82564595  0.37027389    -0.88400
O156        O  0.65179260  0.95500203  0.33949104    -0.81200
C157        C  0.63928124  0.90524022  0.39453378     0.92700
C158        C  0.59754740  0.73979392  0.39629150     0.92500
Mg159      Mg  0.66868598  0.90070261  0.30502031     1.58000
O160        O  0.72294727  0.93774680  0.28506250    -0.81100
O161        O  0.60896010  0.86492281  0.32168652    -0.75400
O162        O  0.62881462  0.86720478  0.39368467    -0.81200
O163        O  0.67886717  0.71208967  0.36242314    -0.82900
O164        O  0.71638212  0.80414662  0.27857955    -0.81200
C165        C  0.60037971  0.85435483  0.33833796     0.86900
O166        O  0.67217460  0.84554501  0.30121397    -0.88400
O167        O  0.70625948  0.91351486  0.32916473    -0.88500
O168        O  0.75899405  0.90732993  0.32076590    -0.75500
Mg169      Mg  0.61118407  0.81750336  0.37155722     1.58000
O170        O  0.65470484  0.92912930  0.38084761    -0.82900
H171        H  0.58047057  0.71855719  0.33401408    -0.06600
O172        O  0.71672879  0.80945816  0.32208401    -0.88200
H173        H  0.77576390  0.83151361  0.32891753    -0.06500
H174        H  0.61932362  0.81838631  0.28714587    -0.06600
C175        C  0.74399181  0.81587349  0.33330252     0.86900
C176        C  0.60054017  0.74504069  0.34229614     0.87500
C177        C  0.64057226  0.81455104  0.29585446     0.87500
H178        H  0.76351394  0.95250441  0.33768037    -0.06600
O179        O  0.71312811  0.89270777  0.37071698    -0.75600
Mg180      Mg  0.73335885  0.85358753  0.30040144     1.58000
H181        H  0.72539420  0.85256468  0.38426891    -0.06600
C182        C  0.68843650  0.69871858  0.34832038     0.92500
O183        O  0.68983911  0.74144882  0.29072178    -0.82900
C184        C  0.70607172  0.76622274  0.27735630     0.92600
O185        O  0.59225565  0.77067114  0.39435408    -0.82900
Mg186      Mg  0.68051430  0.92061793  0.35415519     1.58200
O187        O  0.69089245  0.71401864  0.33241721    -0.81200
O188        O  0.66470641  0.95867253  0.30950889    -0.82900
C189        C  0.82878785  0.74223223  0.19558942    -0.11000
C190        C  0.86642924  0.75248262  0.20364177    -0.04800
C191        C  0.89296893  0.74046259  0.19589718    -0.11000
C192        C  0.88173558  0.71754854  0.17933528     0.10000
C193        C  0.84410095  0.70827927  0.17063843    -0.02800
C194        C  0.81769277  0.72097986  0.17876185     0.09800
C195        C  0.78082178  0.71201660  0.16994258    -0.12800
C196        C  0.76990442  0.69089353  0.15338277    -0.12800
C197        C  0.79503017  0.67718112  0.14528121     0.09800
C198        C  0.83227363  0.68544469  0.15402868    -0.02800
C199        C  0.90631443  0.70287529  0.17146249    -0.12900
C200        C  0.89414787  0.67944912  0.15534135    -0.12900
C201        C  0.85742217  0.67065216  0.14628382     0.10000
C202        C  0.84441470  0.64684273  0.12990617    -0.11000
C203        C  0.80785536  0.63972946  0.12144492    -0.04800
C204        C  0.78356693  0.65495870  0.12871541    -0.11000
H205        H  0.76026731  0.72163420  0.17571801     0.07200
H206        H  0.74121671  0.68486392  0.14709687     0.07200
H207        H  0.93491706  0.70899517  0.17787075     0.07400
H208        H  0.91374390  0.66815985  0.15007272     0.07400
H209        H  0.87453973  0.76881577  0.21663249     0.03900
H210        H  0.79849988  0.62271760  0.10864249     0.03900
O211        O  0.45565275  0.03126725  0.00465648    -0.88500
C212        C  0.47940374  0.96159579  0.04086514     0.87600
Mg213      Mg  0.42893063  0.00982160  0.97783036     1.58100
O214        O  0.56678457  0.04353122  0.02006258    -0.88200
O215        O  0.50844040  0.08248539  0.01826848    -0.75500
C216        C  0.54429288  0.93806451  0.94195662     0.92600
O217        O  0.40759492  0.93259563  0.00903527    -0.75300
O218        O  0.50776693  0.93203908  0.94016606    -0.82800
Mg219      Mg  0.42447857  0.98932928  0.02710467     1.58000
C220        C  0.65464481  0.02039004  0.99793541     0.92500
O221        O  0.43436827  0.04056745  0.04720615    -0.81100
H222        H  0.60130226  0.10381857  0.01492965    -0.06500
C223        C  0.52261381  0.93086793  0.99471188     0.87500
O224        O  0.49194064  0.04518576  0.96389667    -0.75600
O225        O  0.48161053  0.99372266  0.03518456    -0.88400
O226        O  0.63569399  0.01543797  0.01295739    -0.81200
C227        C  0.59110998  0.02738399  0.06506661     0.92700
C228        C  0.45867962  0.06241633  0.05999590     0.92500
Mg229      Mg  0.57648611  0.01116533  0.97474401     1.58000
O230        O  0.56804485  0.96050896  0.95474641    -0.81100
O231        O  0.59258828  0.06724860  0.99291150    -0.75400
O232        O  0.56350586  0.03804772  0.06388791    -0.81200
O233        O  0.36327869  0.98421358  0.01945084    -0.82900
O234        O  0.43895623  0.96131622  0.93784405    -0.81200
C235        C  0.58788981  0.07268441  0.00970808     0.86900
O236        O  0.51911703  0.00564599  0.96661177    -0.88400
O237        O  0.54500998  0.96837775  0.99692790    -0.88500
O238        O  0.49330808  0.91647272  0.98319523    -0.75500
Mg239      Mg  0.53232294  0.05511548  0.04026907     1.58000
O240        O  0.59867279  0.01008291  0.05179675    -0.82900
H241        H  0.47520146  0.09016396  0.99821458    -0.06600
O242        O  0.43416507  0.95514234  0.98187963    -0.88200
H243        H  0.39941812  0.89505686  0.98743297    -0.06500
H244        H  0.54723248  0.05908880  0.95301363    -0.06600
C245        C  0.41287887  0.92640058  0.99239244     0.86900
C246        C  0.47916961  0.06866812  0.00670382     0.87500
C247        C  0.52053223  0.03721834  0.96066734     0.87500
H248        H  0.52749485  0.90978213  0.00307615    -0.06600
O249        O  0.50735444  0.95283123  0.03742106    -0.75600
Mg250      Mg  0.46936335  0.94398058  0.96144954     1.58000
H251        H  0.45241806  0.93983839  0.04839434    -0.06600
C252        C  0.34552201  0.98064932  0.00416503     0.92500
O253        O  0.40008080  0.98493242  0.95012149    -0.82900
C254        C  0.40911480  0.96874794  0.93684692     0.92600
O255        O  0.49501629  0.06785611  0.06143388    -0.82900
Mg256      Mg  0.57064545  0.98804990  0.02383194     1.58200
O257        O  0.36330659  0.98302919  0.98900035    -0.81200
O258        O  0.63786810  0.01787968  0.98251437    -0.82900
O259        O  0.54764672  0.57666189  0.99364253    -0.88500
C260        C  0.51371607  0.47744743  0.96065098     0.87600
Mg261      Mg  0.57597245  0.58069523  0.01974968     1.58100
O262        O  0.43273046  0.47985928  0.98407093    -0.88200
O263        O  0.49321591  0.57663503  0.98285351    -0.75500
C264        C  0.46071575  0.39832216  0.06031248     0.92600
O265        O  0.59169706  0.52273337  0.98890377    -0.75300
O266        O  0.49796587  0.42769099  0.06075295    -0.82800
Mg267      Mg  0.57424981  0.56229235  0.97061879     1.58000
C268        C  0.34146692  0.37091354  0.00834913     0.92500
O269        O  0.56369552  0.60224414  0.94895567    -0.81100
H270        H  0.39936083  0.50701223  0.98946558    -0.06500
C271        C  0.47286160  0.40682231  0.00711962     0.87500
O272        O  0.51418524  0.55690853  0.03463626    -0.75600
O273        O  0.51490643  0.50984439  0.96535210    -0.88400
O274        O  0.35682885  0.38674830  0.99285390    -0.81200
C275        C  0.40318634  0.43762019  0.93933093     0.92700
C276        C  0.53519570  0.59742476  0.93785250     0.92500
Mg277      Mg  0.42482710  0.43782862  0.02877464     1.58000
O278        O  0.43541082  0.39707391  0.04836001    -0.81100
O279        O  0.40718869  0.47776119  0.01121408    -0.75400
O280        O  0.43338615  0.47425982  0.94014607    -0.81200
O281        O  0.63635286  0.61807309  0.97678558    -0.82900
O282        O  0.56657753  0.52450134  0.06020141    -0.81200
C283        C  0.41231915  0.48869779  0.99452865     0.86900
O284        O  0.48413762  0.48945440  0.03454077    -0.88400
O285        O  0.45111234  0.42303498  0.00592306    -0.88500
O286        O  0.50457413  0.42189464  0.01728295    -0.75500
Mg287      Mg  0.46507572  0.52282556  0.96247633     1.58000
O288        O  0.39222462  0.41347800  0.95300347    -0.82900
H289        H  0.53311742  0.61959913  0.00070213    -0.06600
O290        O  0.56594521  0.51904460  0.01621503    -0.88200
H291        H  0.59954935  0.49243274  0.01024297    -0.06500
H292        H  0.45980201  0.51974640  0.04726894    -0.06600
C293        C  0.58638149  0.51079203  0.00548585     0.86900
C294        C  0.52551422  0.59245407  0.99262573     0.87500
C295        C  0.48510190  0.52166807  0.03935105     0.87500
H296        H  0.46534009  0.37982168  0.99894750    -0.06600
O297        O  0.48419253  0.44230676  0.96523304    -0.75600
Mg298      Mg  0.53319634  0.47532271  0.03795949     1.58000
H299        H  0.53902555  0.47908378  0.95284223    -0.06600
C300        C  0.65688656  0.62905184  0.99163336     0.92500
O301        O  0.60549777  0.58598877  0.04733270    -0.82900
C302        C  0.59552875  0.56192085  0.06104514     0.92600
O303        O  0.49831732  0.56844042  0.93990642    -0.82900
Mg304      Mg  0.42224904  0.41839998  0.98015202     1.58200
O305        O  0.64119538  0.61228110  0.00697669    -0.81200
O306        O  0.36240531  0.38248485  0.02302921    -0.82900
O307        O  0.01159217  0.44698718  0.99452053    -0.88500
C308        C  0.95321904  0.48630702  0.95967872     0.87600
Mg309      Mg  0.98467097  0.41482872  0.01969984     1.58100
O310        O  0.03519789  0.56356331  0.98496523    -0.88200
O311        O  0.06771984  0.49936951  0.98376217    -0.75500
C312        C  0.91787515  0.53002869  0.06132345     0.92600
O313        O  0.91490245  0.40580696  0.98717663    -0.75300
O314        O  0.90758138  0.49198184  0.06006435    -0.82800
Mg315      Mg  0.97373859  0.42330230  0.97057670     1.58000
C316        C  0.01642109  0.65356787  0.01129876     0.92500
O317        O  0.02685452  0.43444140  0.95211793    -0.81100
H318        H  0.09412993  0.59297274  0.99290348    -0.06500
C319        C  0.91938081  0.52299453  0.00708297     0.87500
O320        O  0.02122819  0.47451468  0.03624498    -0.75600
O321        O  0.98344675  0.48395940  0.96486145    -0.88400
O322        O  0.01724291  0.63904018  0.99557813    -0.81200
C323        C  0.02853637  0.60114519  0.94094794     0.92700
C324        C  0.05339880  0.45928933  0.94081176     0.92500
Mg325      Mg  0.99577416  0.56702033  0.03057805     1.58000
O326        O  0.94416213  0.55701675  0.05050531    -0.81100
O327        O  0.05368147  0.58341267  0.01337757    -0.75400
O328        O  0.03767024  0.57228650  0.94083728    -0.81200
O329        O  0.96595289  0.35983144  0.97575328    -0.82900
O330        O  0.93181129  0.41904876  0.05935967    -0.81200
C331        C  0.06226820  0.58070553  0.99675603     0.86900
O332        O  0.98524897  0.50607018  0.03570695    -0.88400
O333        O  0.95733125  0.54373767  0.00666879    -0.88500
O334        O  0.90098973  0.49039171  0.01661707    -0.75500
Mg335      Mg  0.04760940  0.53217226  0.96282332     1.58000
O336        O  0.01152692  0.60749031  0.95469260    -0.82900
H337        H  0.06768788  0.45879687  0.00228010    -0.06600
O338        O  0.93368154  0.42595117  0.01550655    -0.88200
H339        H  0.87460976  0.39579815  0.00778149    -0.06500
H340        H  0.03751825  0.52766966  0.04999938    -0.06600
C341        C  0.90645230  0.40839372  0.00382238     0.86900
C342        C  0.04953513  0.46759916  0.99384967     0.87500
C343        C  0.01517154  0.50362635  0.04122392     0.87500
H344        H  0.90143209  0.53221925  0.99874726    -0.06600
O345        O  0.94717492  0.51532182  0.96488472    -0.75600
Mg346      Mg  0.92137236  0.45768351  0.03730779     1.58000
H347        H  0.93057865  0.46223083  0.95101053    -0.06600
C348        C  0.95638594  0.33706820  0.98987036     0.92500
O349        O  0.95714243  0.38232502  0.04630096    -0.82900
C350        C  0.94029669  0.38984055  0.05976355     0.92600
O351        O  0.06203471  0.49698697  0.93983620    -0.82900
Mg352      Mg  0.98439596  0.57505734  0.98134653     1.58200
O353        O  0.95331797  0.35012841  0.00562093    -0.81200
O354        O  0.00572560  0.63130242  0.02560939    -0.82900
O355        O  0.30225946  0.08765592  0.66796877    -0.88500
C356        C  0.36501566  0.17943798  0.70586797     0.87600
Mg357      Mg  0.32503337  0.08561516  0.64102293     1.58100
O358        O  0.27952732  0.17923613  0.68554046    -0.88200
O359        O  0.24837376  0.08373414  0.68167158    -0.75500
C360        C  0.38147660  0.27002200  0.60796739     0.92600
O361        O  0.39969183  0.14477806  0.67268557    -0.75300
O362        O  0.38862652  0.24044929  0.60543428    -0.82800
Mg363      Mg  0.34443030  0.10040503  0.69032292     1.58000
C364        C  0.29942885  0.29207308  0.66566128     0.92500
O365        O  0.29518826  0.05431352  0.70985181    -0.81100
H366        H  0.21922490  0.15189093  0.68016969    -0.06500
C367        C  0.39129168  0.25402139  0.66095034     0.87500
O368        O  0.28430182  0.10899663  0.62810911    -0.75600
O369        O  0.33469335  0.14912271  0.69933841    -0.88400
O370        O  0.29702929  0.27284015  0.68038728    -0.81200
C371        C  0.29388766  0.21433022  0.73179212     0.92700
C372        C  0.27276502  0.05450743  0.72292257     0.92500
Mg373      Mg  0.31181742  0.22633799  0.64113562     1.58000
O374        O  0.36140723  0.27116350  0.62178044    -0.81100
O375        O  0.25570315  0.18356644  0.65872263    -0.75400
O376        O  0.28610509  0.17730091  0.72918225    -0.81200
O377        O  0.35472781  0.04904935  0.68158261    -0.82900
O378        O  0.36775681  0.14625270  0.60146908    -0.81200
C379        C  0.25026082  0.17113324  0.67521061     0.86900
O380        O  0.31931188  0.17570347  0.63181362    -0.88400
O381        O  0.35369041  0.23712867  0.66332123    -0.88500
O382        O  0.40677718  0.24186933  0.64859587    -0.75500
Mg383      Mg  0.27185959  0.13272729  0.70461111     1.58000
O384        O  0.30801728  0.24110548  0.71903247    -0.82900
H385        H  0.24471043  0.04590978  0.66088693    -0.06600
O386        O  0.37590011  0.14675151  0.64547760    -0.88200
H387        H  0.43605170  0.17692110  0.65129615    -0.06500
H388        H  0.26530833  0.14794421  0.61861762    -0.06600
C389        C  0.40510076  0.15656469  0.65609631     0.86900
C390        C  0.26452248  0.07116167  0.66982592     0.87500
C391        C  0.28889623  0.14469836  0.62573747     0.87500
H392        H  0.41152399  0.27947744  0.66970109    -0.06600
O393        O  0.37088827  0.21552368  0.70341143    -0.75600
Mg394      Mg  0.38216815  0.19194129  0.62592736     1.58000
H395        H  0.38768689  0.17523830  0.71329108    -0.06600
C396        C  0.36284274  0.03838164  0.66635595     0.92500
O397        O  0.34885965  0.08402144  0.61276326    -0.82900
C398        C  0.36209396  0.10971949  0.59961107     0.92600
O399        O  0.26398497  0.08315584  0.72473146    -0.82900
Mg400      Mg  0.33137581  0.23978464  0.69043772     1.58200
O401        O  0.36111065  0.05452454  0.65129030    -0.81200
O402        O  0.30665045  0.28110905  0.65029877    -0.82900
C403        C  0.15524089  0.37518138  0.86854304    -0.11000
C404        C  0.19026761  0.38189151  0.87831430    -0.04800
C405        C  0.21722953  0.36944510  0.87158161    -0.11000
C406        C  0.21069328  0.35104836  0.85419468     0.10000
C407        C  0.17477016  0.34238339  0.84423680    -0.02800
C408        C  0.14660242  0.35413135  0.85141978     0.09800
C409        C  0.11040508  0.34337373  0.84153318    -0.12800
C410        C  0.10185661  0.32128906  0.82507824    -0.12800
C411        C  0.12949585  0.30968662  0.81776331     0.09800
C412        C  0.16669874  0.32107765  0.82726434    -0.02800
C413        C  0.23878680  0.34031942  0.84674346    -0.12900
C414        C  0.23197703  0.32157467  0.82968837    -0.12900
C415        C  0.19603562  0.31135146  0.81980096     0.10000
C416        C  0.18856833  0.29139591  0.80266122    -0.11000
C417        C  0.15124523  0.27919898  0.79375722    -0.04800
C418        C  0.12153829  0.28763089  0.80104638    -0.11000
H419        H  0.08809411  0.35137417  0.84661406     0.07200
H420        H  0.07345802  0.31361461  0.81804538     0.07200
H421        H  0.26655491  0.34658807  0.85397984     0.07400
H422        H  0.25469644  0.31424447  0.82449171     0.07400
H423        H  0.19657603  0.39678556  0.89162156     0.03900
H424        H  0.14557449  0.26359756  0.78064277     0.03900
C425        C  0.15239687  0.78264565  0.87029987    -0.11000
C426        C  0.18847728  0.81151593  0.87924366    -0.04800
C427        C  0.21459687  0.85043086  0.87175179    -0.11000
C428        C  0.20508763  0.86074868  0.85448680     0.10000
C429        C  0.16800169  0.83235364  0.84544711    -0.02800
C430        C  0.14134235  0.79326828  0.85342230     0.09800
C431        C  0.10469053  0.76587858  0.84423227    -0.12800
C432        C  0.09395715  0.77686497  0.82768434    -0.12800
C433        C  0.11981506  0.81534373  0.81958402     0.09800
C434        C  0.15751517  0.84317592  0.82841723    -0.02800
C435        C  0.23149982  0.89879159  0.84610711    -0.12900
C436        C  0.22186213  0.90885341  0.82913164    -0.12900
C437        C  0.18493973  0.88171980  0.82016514     0.10000
C438        C  0.17469935  0.89172698  0.80303011    -0.11000
C439        C  0.13726614  0.86455328  0.79481022    -0.04800
C440        C  0.10967098  0.82676829  0.80269937    -0.11000
H441        H  0.08385434  0.73574514  0.84983492     0.07200
H442        H  0.06535528  0.75482860  0.82117898     0.07200
H443        H  0.26011096  0.92098553  0.85254854     0.07400
H444        H  0.24345570  0.93829574  0.82314390     0.07400
H445        H  0.19613414  0.80371495  0.89243386     0.03900
H446        H  0.12945690  0.87303824  0.78180055     0.03900
O447        O  0.91536731  0.21763616  0.66904676    -0.88500
C448        C  0.82619524  0.19580966  0.70714369     0.87600
Mg449      Mg  0.91669888  0.23995873  0.64185802     1.58100
O450        O  0.81925377  0.10727351  0.68627513    -0.88200
O451        O  0.91644545  0.16615782  0.68273974    -0.75500
C452        C  0.72330887  0.12516799  0.61170568     0.92600
O453        O  0.86548780  0.26667577  0.67392925    -0.75300
O454        O  0.75401900  0.16122660  0.60923173    -0.82800
Mg455      Mg  0.90718414  0.25123563  0.69122812     1.58000
C456        C  0.70503198  0.01481636  0.66765173     0.92500
O457        O  0.95077674  0.24299432  0.71058449    -0.81100
H458        H  0.84450840  0.07252842  0.68009617    -0.06500
C459        C  0.74717339  0.15008900  0.66394457     0.87500
O460        O  0.88534556  0.17471890  0.62986218    -0.75600
O461        O  0.85577012  0.19403992  0.70070045    -0.88400
O462        O  0.72173310  0.03525412  0.68214184    -0.81200
C463        C  0.78606878  0.08496780  0.73235029     0.92700
C464        C  0.95004380  0.21947458  0.72341936     0.92500
Mg465      Mg  0.76831004  0.09296546  0.64266062     1.58000
O466        O  0.72317267  0.10140335  0.62428096    -0.81100
O467        O  0.81149401  0.07818176  0.65936877    -0.75400
O468        O  0.82324146  0.11402792  0.73027368    -0.81200
O469        O  0.96161562  0.31268637  0.68156837    -0.82900
O470        O  0.85214311  0.22734509  0.60376051    -0.81200
C471        C  0.82551007  0.08519216  0.67562762     0.86900
O472        O  0.81914761  0.14961128  0.63330592    -0.88400
O473        O  0.76078212  0.12604619  0.66530110    -0.88500
O474        O  0.76125071  0.17909955  0.65225453    -0.75500
Mg475      Mg  0.86771220  0.14368826  0.70554019     1.58000
O476        O  0.75924498  0.07553650  0.71982711    -0.82900
H477        H  0.95526643  0.19903916  0.66212759    -0.06600
O478        O  0.85815241  0.23691537  0.64725417    -0.88200
H479        H  0.83446814  0.27339115  0.65264357    -0.06500
H480        H  0.84234821  0.11884918  0.62011725    -0.06600
C481        C  0.85245557  0.25992206  0.65753276     0.86900
C482        C  0.93035954  0.19494338  0.67097737     0.87500
C483        C  0.84837902  0.14670288  0.62723189     0.87500
H484        H  0.72336574  0.14699231  0.67326656    -0.06600
O485        O  0.78953236  0.16667348  0.70489925    -0.75600
Mg486      Mg  0.80824257  0.20031511  0.62867816     1.58000
H487        H  0.83157717  0.22324037  0.71445184    -0.06600
C488        C  0.97402713  0.32816453  0.66571097     0.92500
O489        O  0.91742790  0.26307691  0.61327468    -0.82900
C490        C  0.89015722  0.25319990  0.60087405     0.92600
O491        O  0.91976238  0.18308490  0.72559595    -0.82900
Mg492      Mg  0.76000182  0.10198631  0.69206434     1.58200
O493        O  0.95801935  0.30746714  0.65114863    -0.81200
O494        O  0.71516712  0.03106475  0.65184420    -0.82900
O495        O  0.76241411  0.63815170  0.66020991    -0.88500
C496        C  0.85632007  0.68935447  0.62290042     0.87600
Mg497      Mg  0.76159270  0.67053632  0.68471739     1.58100
O498        O  0.85653882  0.61189824  0.65050363    -0.88200
O499        O  0.76014989  0.58064954  0.65201318    -0.75500
C500        C  0.94744343  0.73958118  0.72152651     0.92600
O501        O  0.81761699  0.73336092  0.64969418    -0.75300
O502        O  0.91888892  0.74883648  0.72173837    -0.82800
Mg503      Mg  0.77450309  0.67200868  0.63493182     1.58000
C504        C  0.97086988  0.63870909  0.67471046     0.92500
O505        O  0.73050773  0.61684430  0.61679928    -0.81100
H506        H  0.82915511  0.55378685  0.65960085    -0.06500
C507        C  0.93245933  0.73082070  0.66786179     0.87500
O508        O  0.78609648  0.63583754  0.70200762    -0.75600
O509        O  0.82488200  0.66087171  0.62975042    -0.88400
O510        O  0.95405572  0.63377139  0.65895212    -0.81200
C511        C  0.89231414  0.61107664  0.60535609     0.92700
C512        C  0.73145395  0.58957177  0.60661387     0.92500
Mg513      Mg  0.90317929  0.65842619  0.69347686     1.58000
O514        O  0.94722162  0.71369426  0.71019243    -0.81100
O515        O  0.86068882  0.59689200  0.67909313    -0.75400
O516        O  0.85516059  0.60355061  0.60675594    -0.81200
O517        O  0.72033800  0.68185265  0.64035058    -0.82900
O518        O  0.82391196  0.72788413  0.72220769    -0.81200
C519        C  0.84834408  0.58617433  0.66275572     0.86900
O520        O  0.85295693  0.66960987  0.69878302    -0.88400
O521        O  0.91569395  0.69281187  0.66846675    -0.88500
O522        O  0.91958839  0.75056083  0.67741460    -0.75500
Mg523      Mg  0.80978067  0.59688256  0.62991158     1.58000
O524        O  0.91856010  0.62889235  0.61811789    -0.82900
H525        H  0.72108272  0.58343938  0.67048690    -0.06600
O526        O  0.82311629  0.71958241  0.67837638    -0.88200
H527        H  0.85081018  0.77723410  0.66868570    -0.06500
H528        H  0.82442573  0.62044708  0.71514528    -0.06600
C529        C  0.83112908  0.74475050  0.66587459     0.86900
C530        C  0.74654839  0.60024647  0.66120768     0.87500
C531        C  0.82162048  0.64144169  0.70584278     0.87500
H532        H  0.95819005  0.74762279  0.65871121    -0.06600
O533        O  0.89187151  0.69526867  0.62692617    -0.75600
Mg534      Mg  0.86945202  0.73397037  0.69934968     1.58000
H535        H  0.85356657  0.71041995  0.61362472    -0.06600
C536        C  0.70974937  0.69470931  0.65431519     0.92500
O537        O  0.76085739  0.70412309  0.71075182    -0.82900
C538        C  0.78726101  0.72185009  0.72347832     0.92600
O539        O  0.75969737  0.58011004  0.60824616    -0.82900
Mg540      Mg  0.91765863  0.66155210  0.64409377     1.58200
O541        O  0.72800604  0.70043077  0.66972737    -0.81200
O542        O  0.95776077  0.64924280  0.68856570    -0.82900
C543        C  0.61206421  0.83575579  0.86324510    -0.11000
C544        C  0.60401370  0.79802816  0.87068428    -0.04800
C545        C  0.61646818  0.77263105  0.86207306    -0.11000
C546        C  0.63687807  0.78466652  0.84496666     0.10000
C547        C  0.64533270  0.82294400  0.83709422    -0.02800
C548        C  0.63315416  0.84874166  0.84632947     0.09800
C549        C  0.64328040  0.88710976  0.83863646    -0.12800
C550        C  0.66431459  0.89975404  0.82204998    -0.12800
C551        C  0.67600957  0.87450250  0.81248776     0.09800
C552        C  0.66651846  0.83573336  0.82007925    -0.02800
C553        C  0.64870853  0.75948789  0.83547135    -0.12900
C554        C  0.66866395  0.77163348  0.81858084    -0.12900
C555        C  0.67800951  0.80966327  0.81067005     0.10000
C556        C  0.69885412  0.82252719  0.79366862    -0.11000
C557        C  0.70878614  0.86126911  0.78660910    -0.04800
C558        C  0.69740461  0.88721901  0.79563149    -0.11000
H559        H  0.63534271  0.90793445  0.84546559     0.07200
H560        H  0.67156856  0.92973584  0.81682565     0.07200
H561        H  0.64233760  0.73000618  0.84100527     0.07400
H562        H  0.67716873  0.75111520  0.81184636     0.07400
H563        H  0.58841305  0.78858779  0.88379483     0.03900
H564        H  0.72425697  0.87072310  0.77348231     0.03900
C565        C  0.02560964  0.47473483  0.46307356    -0.11000
C566        C  0.03507792  0.51281707  0.45553438    -0.04800
C567        C  0.01898464  0.53652081  0.46274172    -0.11000
C568        C  0.99372393  0.52256824  0.47849363     0.10000
C569        C  0.98418937  0.48411805  0.48647485    -0.02800
C570        C  0.99973527  0.45983392  0.47859340     0.09800
C571        C  0.98927183  0.42155776  0.48650047    -0.12800
C572        C  0.96377977  0.40717328  0.50180888    -0.12800
C573        C  0.94870753  0.43102720  0.51010866     0.09800
C574        C  0.95900704  0.46990265  0.50234737    -0.02800
C575        C  0.97827762  0.54624129  0.48660798    -0.12900
C576        C  0.95425196  0.53268899  0.50237422    -0.12900
C577        C  0.94443053  0.49476666  0.51049050     0.10000
C578        C  0.92022721  0.48094942  0.52652124    -0.11000
C579        C  0.90937095  0.44218732  0.53369070    -0.04800
C580        C  0.92313413  0.41698141  0.52580803    -0.11000
H581        H  0.00062219  0.40227317  0.48086873     0.07200
H582        H  0.95604684  0.37710763  0.50706211     0.07200
H583        H  0.98512391  0.57576895  0.48096167     0.07400
H584        H  0.94315584  0.55211034  0.50810473     0.07400
H585        H  0.05419471  0.52353108  0.44337031     0.03900
H586        H  0.89110064  0.43210119  0.54611105     0.03900
C587        C  0.43513302  0.49605106  0.46922782    -0.11000
C588        C  0.46207675  0.53508528  0.46222238    -0.04800
C589        C  0.50113213  0.56016105  0.46971998    -0.11000
C590        C  0.51342801  0.54693896  0.48546216     0.10000
C591        C  0.48623689  0.50773268  0.49309153    -0.02800
C592        C  0.44706329  0.48196041  0.48486836     0.09800
C593        C  0.42087817  0.44312610  0.49259899    -0.12800
C594        C  0.43299278  0.42953449  0.50792861    -0.12800
C595        C  0.47161303  0.45442295  0.51616048     0.09800
C596        C  0.49850067  0.49400766  0.50880418    -0.02800
C597        C  0.55197257  0.57186628  0.49379119    -0.12900
C598        C  0.56379545  0.55859454  0.50934577    -0.12900
C599        C  0.53747829  0.51994657  0.51720043     0.10000
C600        C  0.54903722  0.50603403  0.53306726    -0.11000
C601        C  0.52216183  0.46664421  0.53981233    -0.04800
C602        C  0.48403095  0.44099647  0.53170717    -0.11000
H603        H  0.39063521  0.42301832  0.48691677     0.07200
H604        H  0.41174400  0.39930830  0.51334160     0.07200
H605        H  0.57322818  0.60211626  0.48842047     0.07400
H606        H  0.59394055  0.57880331  0.51508487     0.07400
H607        H  0.45360026  0.54499358  0.44978576     0.03900
H608        H  0.53041812  0.45609528  0.55211799     0.00900
C609        C  0.53021599  0.98074795  0.46294941    -0.11000
C610        C  0.49264104  0.96595444  0.45380945    -0.04800
C611        C  0.45948542  0.96752224  0.46170233    -0.11000
C612        C  0.46392434  0.98477290  0.47941145     0.10000
C613        C  0.50169233  0.99925243  0.48907352    -0.02800
C614        C  0.53475486  0.99658016  0.48092498     0.09800
C615        C  0.57132900  0.00992204  0.49090760    -0.12800
C616        C  0.57568120  0.02611872  0.50852309    -0.12800
C617        C  0.54416840  0.03094812  0.51659974     0.09800
C618        C  0.50651457  0.01678981  0.50683970    -0.02800
C619        C  0.43159232  0.98758785  0.48776848    -0.12900
C620        C  0.43635307  0.00494530  0.50512437    -0.12900
C621        C  0.47350823  0.01983925  0.51484055     0.10000
C622        C  0.47847453  0.03750126  0.53242488    -0.11000
C623        C  0.51575195  0.05173555  0.54173980    -0.04800
C624        C  0.54869580  0.04873311  0.53428432    -0.11000
H625        H  0.59680873  0.00759527  0.48520998     0.07200
H626        H  0.60409549  0.03478369  0.51572017     0.07200
H627        H  0.40224814  0.97636204  0.48094192     0.07400
H628        H  0.41057069  0.00661145  0.51089766     0.07400
H629        H  0.48946711  0.95382278  0.44002414     0.03900
H630        H  0.51908805  0.06543505  0.55518741     0.03900
O631        O  0.97466627  0.05156385  0.00816264    -0.88500
C632        C  0.93044473  0.95873949  0.97002032     0.87600
Mg633      Mg  0.03672640  0.10200067  0.00718242     1.58100
O634        O  0.94912478  0.92982419  0.01315349    -0.88200
O635        O  0.93390464  0.00149372  0.02661493    -0.75500
C636        C  0.14944814  0.01032418  0.99607715     0.92600
O637        O  0.99886135  0.05850729  0.96539241    -0.75300
O638        O  0.14991241  0.04350923  0.99155453    -0.82800
Mg639      Mg  0.94094415  0.03837602  0.98291766     1.58000
C640        C  0.01112033  0.86292982  0.01650634     0.92500
O641        O  0.88080623  0.02102875  0.99704898    -0.81100
H642        H  0.93823939  0.92207433  0.04006005    -0.06500
C643        C  0.03813093  0.96078501  0.97505256     0.87500
O644        O  0.05656826  0.06976855  0.02847806    -0.75600
O645        O  0.92957400  0.97574173  0.98441789    -0.88400
O646        O  0.97787570  0.86020322  0.01041304    -0.81200
C647        C  0.86134644  0.84747098  0.99107453     0.92700
C648        C  0.84881313  0.98996960  0.00333516     0.92500
Mg649      Mg  0.05625056  0.96300105  0.01599181     1.58000
O650        O  0.11759439  0.97976459  0.00280708    -0.81100
O651        O  0.99796942  0.94374710  0.03302607    -0.75400
O652        O  0.85982299  0.88044194  0.99390537    -0.81200
O653        O  0.95180129  0.10411666  0.98202093    -0.82900
O654        O  0.13725573  0.12009296  0.00357278    -0.81200
C655        C  0.96050405  0.93097618  0.02911980     0.86900
O656        O  0.06795935  0.02539153  0.01370979    -0.88400
O657        O  0.02308348  0.94898445  0.99044511    -0.88500
O658        O  0.06323446  0.99849958  0.97163836    -0.75500
Mg659      Mg  0.89995587  0.94246500  0.00920561     1.58000
O660        O  0.89491657  0.84669482  0.99184054    -0.82900
H661        H  0.96905387  0.06108503  0.03468499    -0.06600
O662        O  0.04809070  0.07126958  0.98490761    -0.88200
H663        H  0.05834482  0.07983489  0.95797043    -0.06500
H664        H  0.07675630  0.03425371  0.04071322    -0.06600
C665        C  0.03636147  0.07069097  0.96904051     0.86900
C666        C  0.95944161  0.03926879  0.02349182     0.87500
C667        C  0.06785376  0.04281140  0.02808171     0.87500
H668        H  0.02850021  0.93856892  0.96402079    -0.06600
O669        O  0.94172466  0.93172581  0.96970166    -0.75600
Mg670      Mg  0.09728885  0.05781446  0.98873003     1.58000
H671        H  0.92211616  0.96761375  0.95731860    -0.06600
C672        C  0.98443457  0.13890735  0.98373836     0.92500
O673        O  0.10290305  0.15448122  0.00655602    -0.82900
C674        C  0.13628140  0.15318631  0.00693499     0.92600
O675        O  0.84760821  0.95598531  0.00666065    -0.82900
Mg676      Mg  0.96083138  0.89911794  0.99127613     1.58200
O677        O  0.01846788  0.14178099  0.98884569    -0.81200
O678        O  0.04426811  0.89730505  0.01802033    -0.82900
O679        O  0.68509595  0.27813743  0.34387081    -0.88500
C680        C  0.73031228  0.36897846  0.30480020     0.87600
Mg681      Mg  0.62124649  0.23079949  0.34437529     1.58100
O682        O  0.71542705  0.40168950  0.34795384    -0.88200
O683        O  0.72770416  0.32788849  0.36194033    -0.75500
C684        C  0.51666530  0.32875092  0.33241294     0.92600
O685        O  0.65813657  0.27103002  0.30137143    -0.75300
O686        O  0.51658753  0.29605220  0.32757773    -0.82800
Mg687      Mg  0.71692913  0.28941755  0.31779440     1.58000
C688        C  0.66204987  0.47516072  0.35180895     0.92500
O689        O  0.78097184  0.30610250  0.32955177    -0.81100
H690        H  0.72823419  0.41046882  0.37469971    -0.06500
C691        C  0.62648905  0.37401280  0.31061760     0.87500
O692        O  0.60549114  0.26680884  0.36521684    -0.75600
O693        O  0.73124125  0.35270618  0.31939263    -0.88400
O694        O  0.69201653  0.47445951  0.34383692    -0.81200
C695        C  0.80495504  0.47969380  0.32476245     0.92700
C696        C  0.81288590  0.33821134  0.33551613     0.92500
Mg697      Mg  0.61030512  0.37453130  0.35190432     1.58000
O698        O  0.54832752  0.35981043  0.33916594    -0.81100
O699        O  0.66856705  0.39104782  0.36836373    -0.75400
O700        O  0.80365870  0.44630917  0.32951933    -0.81200
O701        O  0.70043905  0.22232457  0.31619676    -0.82900
O702        O  0.52140373  0.21659542  0.33866702    -0.81200
C703        C  0.70539556  0.40205825  0.36402036     0.86900
O704        O  0.59486356  0.31087220  0.34976651    -0.88400
O705        O  0.64201927  0.38599187  0.32591745    -0.88500
O706        O  0.60088060  0.33641604  0.30737989    -0.75500
Mg707      Mg  0.76200790  0.38570705  0.34415474     1.58000
O708        O  0.77262925  0.48285623  0.32401941    -0.82900
H709        H  0.69192858  0.26868788  0.37025303    -0.06600
O710        O  0.61117110  0.26126382  0.32152092    -0.88200
H711        H  0.59839122  0.25073009  0.29483266    -0.06500
H712        H  0.58737807  0.30450697  0.37688407    -0.06600
C713        C  0.62124453  0.26001292  0.30556061     0.86900
C714        C  0.70143015  0.29032236  0.35901475     0.87500
C715        C  0.59502987  0.29431053  0.36437977     0.87500
H716        H  0.63650706  0.39588157  0.29945987    -0.06600
O717        O  0.72005928  0.39667253  0.30413635    -0.75600
Mg718      Mg  0.56509396  0.27833681  0.32473230     1.58000
H719        H  0.73725762  0.35849835  0.29219485    -0.06600
C720        C  0.66695309  0.18887860  0.31924492     0.92500
O721        O  0.55281303  0.18079181  0.34543026    -0.82900
C722        C  0.52019355  0.18341495  0.34383387     0.92600
O723        O  0.81192804  0.37021542  0.34055733    -0.82900
Mg724      Mg  0.70517216  0.43273671  0.32538577     1.58200
O725        O  0.63576233  0.18846468  0.32660545    -0.81200
O726        O  0.62782436  0.44233019  0.35467191    -0.82900
O727        O  0.29215651  0.69655638  0.66047425    -0.88500
C728        C  0.37901294  0.73251825  0.70105174     0.87600
Mg729      Mg  0.24335296  0.63386421  0.65775422     1.58100
O730        O  0.41380700  0.72379512  0.65728450    -0.88200
O731        O  0.34389123  0.74279387  0.64440343    -0.75500
C732        C  0.33297556  0.51964361  0.66402419     0.92600
O733        O  0.27970839  0.66062657  0.70159826    -0.75300
O734        O  0.29946340  0.51884588  0.66793407    -0.82800
Mg735      Mg  0.30024097  0.72289208  0.68763644     1.58000
C736        C  0.48424124  0.66592019  0.65170447     0.92500
O737        O  0.31954181  0.78811120  0.67750948    -0.81100
H738        H  0.42524613  0.74127591  0.63108406    -0.06500
C739        C  0.37874371  0.62522042  0.69078028     0.87500
O740        O  0.27921261  0.62041497  0.63583363    -0.75600
O741        O  0.36383154  0.73659512  0.68671307    -0.88400
O742        O  0.48355837  0.69522820  0.66031059    -0.81200
C743        C  0.49393382  0.80699122  0.68194966     0.92700
C744        C  0.35202265  0.82144719  0.67311586     0.92500
Mg745      Mg  0.38380052  0.61801631  0.64925307     1.58000
O746        O  0.36549424  0.55293035  0.65961054    -0.81100
O747        O  0.40413919  0.68027595  0.63524669    -0.75400
O748        O  0.46132962  0.80950469  0.67991511    -0.81200
O749        O  0.23191737  0.70785828  0.68866998    -0.82900
O750        O  0.22336112  0.53130803  0.65707323    -0.81200
C751        C  0.41531516  0.71647538  0.64090066     0.86900
O752        O  0.32066225  0.60452662  0.65031047    -0.88400
O753        O  0.39261780  0.64464602  0.67639804    -0.88500
O754        O  0.34085774  0.59871720  0.69255500    -0.75500
Mg755      Mg  0.40026167  0.77193156  0.66344080     1.58000
O756        O  0.49361028  0.77290518  0.68081696    -0.82900
H757        H  0.28558361  0.70975293  0.63460004    -0.06600
O758        O  0.27074529  0.61727505  0.67958466    -0.88200
H759        H  0.25894568  0.59970272  0.70576631    -0.06500
H760        H  0.31667177  0.60352220  0.62299822    -0.06600
C761        C  0.26890944  0.62451314  0.69595241     0.86900
C762        C  0.30600934  0.71624788  0.64614981     0.87500
C763        C  0.30587733  0.60880595  0.63590107     0.87500
H764        H  0.39916066  0.63192134  0.70235342    -0.06600
O765        O  0.40588367  0.72112714  0.70097508    -0.75600
Mg766      Mg  0.28444887  0.56923861  0.67351692     1.58000
H767        H  0.36854244  0.73794678  0.71400892    -0.06600
C768        C  0.19921532  0.67454273  0.68426720     0.92500
O769        O  0.19109594  0.56783378  0.65566421    -0.82900
C770        C  0.19076319  0.53369043  0.65469175     0.92600
O771        O  0.38557734  0.82255902  0.66900753    -0.82900
Mg772      Mg  0.44150695  0.70719680  0.67895778     1.58200
O773        O  0.20095642  0.64536632  0.67609839    -0.81200
O774        O  0.45113416  0.63285216  0.64764375    -0.82900
C775        C  0.15743525  0.66957944  0.68710970    -0.05400
C776        C  0.15095809  0.69619829  0.69848491    -0.05300
C777        C  0.11193455  0.69297685  0.69953155    -0.23500
C778        C  0.07891332  0.66379019  0.68884661     0.18800
C779        C  0.08499448  0.63672516  0.67748753     0.16000
C780        C  0.12374028  0.63924502  0.67697963    -0.18500
C781        C  0.05272738  0.60867433  0.66619883    -0.20300
C782        C  0.01520958  0.60848895  0.66561002    -0.12900
C783        C  0.00867344  0.63532706  0.67674910     0.03800
C784        C  0.04047908  0.66229471  0.68870826    -0.25000
H785        H  0.17615759  0.71982329  0.70638722     0.08900
H786        H  0.10790271  0.71413417  0.70828455     0.12500
H787        H  0.12805520  0.61867257  0.66794223     0.12400
H788        H  0.05698614  0.58779437  0.65735313     0.12200
H789        H  0.99140497  0.58766209  0.65627573     0.12700
H790        H  0.03611869  0.68371511  0.69714420     0.14700
C791        C  0.52507333  0.67003582  0.64755691    -0.05400
C792        C  0.52858170  0.64164649  0.63611810    -0.05300
C793        C  0.56660444  0.64335828  0.63384368    -0.23500
C794        C  0.60166777  0.67292170  0.64328175     0.18800
C795        C  0.59866527  0.70198262  0.65460406     0.16000
C796        C  0.56072169  0.70084295  0.65637947    -0.18500
C797        C  0.63320293  0.73051934  0.66463408    -0.20300
C798        C  0.66989202  0.72914197  0.66409103    -0.12900
C799        C  0.67317348  0.70014108  0.65303746     0.03800
C800        C  0.63916648  0.67278090  0.64226537    -0.25000
H801        H  0.50176971  0.61765150  0.62917386     0.08900
H802        H  0.56829311  0.62072294  0.62514433     0.12500
H803        H  0.55861938  0.72280571  0.66539436     0.12400
H804        H  0.63138222  0.75294359  0.67343094     0.12200
H805        H  0.69554905  0.75030801  0.67255151     0.12700
H806        H  0.64110527  0.64972625  0.63395364     0.14700
C807        C  0.77620536  0.73874616  0.73964724    -0.05400
C808        C  0.80736194  0.76808620  0.75107198    -0.05300
C809        C  0.79824373  0.78887377  0.76461349    -0.23500
C810        C  0.75769858  0.78060885  0.76714357     0.18800
C811        C  0.72578519  0.74983739  0.75636198     0.16000
C812        C  0.73521614  0.72919821  0.74269306    -0.18500
C813        C  0.68512469  0.74123960  0.75901663    -0.20300
C814        C  0.67635818  0.76380227  0.77176725    -0.12900
C815        C  0.70801290  0.79536062  0.78206225     0.03800
C816        C  0.74865437  0.80338930  0.77985572    -0.25000
H817        H  0.83921058  0.77628412  0.74907030     0.08900
H818        H  0.82309415  0.81215822  0.77280488     0.12500
H819        H  0.71079995  0.70664796  0.73406966     0.12400
H820        H  0.66022722  0.71771562  0.75093448     0.12200
H821        H  0.64495568  0.75753949  0.77321438     0.12700
H822        H  0.77319051  0.82795751  0.78770602     0.14700
C823        C  0.69976544  0.56974773  0.59197779    -0.05400
C824        C  0.69469496  0.53431923  0.58287908    -0.05300
C825        C  0.66610101  0.51650345  0.56863860    -0.23500
C826        C  0.64214687  0.53391240  0.56306364     0.18800
C827        C  0.64716057  0.56977552  0.57190140     0.16000
C828        C  0.67574042  0.58733554  0.58633657    -0.18500
C829        C  0.62300031  0.58702865  0.56632598    -0.20300
C830        C  0.59295773  0.56793141  0.55268800    -0.12900
C831        C  0.58690877  0.53159882  0.54416668     0.03800
C832        C  0.61237772  0.51531293  0.54919236    -0.25000
H833        H  0.71281350  0.52022606  0.58681442     0.08900
H834        H  0.66261214  0.48896099  0.56202600     0.12500
H835        H  0.67952258  0.61491328  0.59304331     0.12400
H836        H  0.62637919  0.61452172  0.57294172     0.12200
H837        H  0.57303308  0.58039375  0.54942308     0.12700
H838        H  0.60752194  0.48693202  0.54289171     0.14700
C839        C  0.90487217  0.59651490  0.58892723    -0.05400
C840        C  0.94635875  0.60731783  0.58658237    -0.05300
C841        C  0.95795269  0.58940561  0.57271835    -0.23500
C842        C  0.92825705  0.55991511  0.56101424     0.18800
C843        C  0.88659319  0.54967354  0.56275528     0.16000
C844        C  0.87523641  0.56844601  0.57654462    -0.18500
C845        C  0.85679662  0.51932195  0.55126588    -0.20300
C846        C  0.86794098  0.49802037  0.53882455    -0.12900
C847        C  0.90911223  0.50748345  0.53738675     0.03800
C848        C  0.93928546  0.53910512  0.54819434    -0.25000
H849        H  0.96987413  0.62884554  0.59583119     0.08900
H850        H  0.99000564  0.59761174  0.57155445     0.12500
H851        H  0.84309133  0.55955605  0.57820792     0.12400
H852        H  0.82470649  0.51098259  0.55238922     0.12200
H853        H  0.84433735  0.47337445  0.53066807     0.12700
H854        H  0.97098290  0.54590400  0.54726801     0.14700
C855        C  0.67114740  0.97179765  0.66950358    -0.05400
C856        C  0.66570288  0.94160872  0.65661021    -0.05300
C857        C  0.63175156  0.90173517  0.65777099    -0.23500
C858        C  0.60185400  0.89195819  0.67140979     0.18800
C859        C  0.60708299  0.92217870  0.68444435     0.16000
C860        C  0.64226250  0.96150385  0.68370139    -0.18500
C861        C  0.57603918  0.91320991  0.69741400    -0.20300
C862        C  0.53930849  0.87531664  0.69694156    -0.12900
C863        C  0.53390638  0.84519420  0.68405213     0.03800
C864        C  0.56581475  0.85323558  0.67166644    -0.25000
H865        H  0.68763827  0.94896484  0.64559948     0.08900
H866        H  0.62810613  0.87899657  0.64761196     0.12500
H867        H  0.64597253  0.98486566  0.69354584     0.12400
H868        H  0.57947420  0.93611510  0.70743831     0.12200
H869        H  0.51494275  0.86962791  0.70650526     0.12700
H870        H  0.56140660  0.83025542  0.66147050     0.14700
C871        C  0.00950923  0.37065504  0.66405255    -0.05400
C872        C  0.01311294  0.40231675  0.67562300    -0.05300
C873        C  0.04782216  0.44180757  0.67473105    -0.23500
C874        C  0.08034863  0.44991868  0.66275234     0.18800
C875        C  0.07724504  0.41818990  0.65114605     0.16000
C876        C  0.04140463  0.37910722  0.65154000    -0.18500
C877        C  0.11075841  0.42561728  0.63993424    -0.20300
C878        C  0.14752322  0.46352434  0.64073090    -0.12900
C879        C  0.15083989  0.49525772  0.65215962     0.03800
C880        C  0.11666722  0.48857696  0.66278896    -0.25000
H881        H  0.98899591  0.39644975  0.68536130     0.08900
H882        H  0.04978413  0.46566979  0.68382001     0.12500
H883        H  0.03919581  0.35463933  0.64277193     0.12400
H884        H  0.10905889  0.40159228  0.63103369     0.12200
H885        H  0.17354214  0.46798679  0.63254218     0.12700
H886        H  0.11927830  0.51267334  0.67192701     0.14700
C887        C  0.70619502  0.92610054  0.78629121    -0.05400
C888        C  0.67442982  0.92858914  0.77721149    -0.05300
C889        C  0.68314262  0.96275861  0.76629151    -0.23500
C890        C  0.72387156  0.99499120  0.76426092     0.18800
C891        C  0.75577811  0.99363990  0.77406795     0.16000
C892        C  0.74676377  0.95909576  0.78497820    -0.18500
C893        C  0.79641012  0.02598136  0.77212418    -0.20300
C894        C  0.80577468  0.05791167  0.75966542    -0.12900
C895        C  0.77474323  0.05812238  0.74884545     0.03800
C896        C  0.73349545  0.02728391  0.75181031    -0.25000
H897        H  0.64303818  0.90330964  0.77806570     0.08900
H898        H  0.65824325  0.96331428  0.75895730     0.12500
H899        H  0.77133311  0.95714599  0.79194657     0.12400
H900        H  0.82121681  0.02566211  0.77964618     0.12200
H901        H  0.83777021  0.08100712  0.75767557     0.12700
H902        H  0.70914313  0.02693762  0.74362780     0.14700
C903        C  0.58682415  0.06497091  0.54568839    -0.05400
C904        C  0.62492632  0.09643599  0.53919518    -0.05300
C905        C  0.65940843  0.11485560  0.55076141    -0.23500
C906        C  0.65618987  0.10283490  0.56918552     0.18800
C907        C  0.61799024  0.07121990  0.57582342     0.16000
C908        C  0.58382590  0.05235625  0.56404930    -0.18500
C909        C  0.61437253  0.05922019  0.59420657    -0.20300
C910        C  0.64844703  0.07776194  0.60585515    -0.12900
C911        C  0.68683312  0.10895518  0.59946108     0.03800
C912        C  0.69037917  0.12178431  0.58108747    -0.25000
H913        H  0.62774241  0.10749311  0.52527230     0.08900
H914        H  0.68835281  0.13907261  0.54539738     0.12500
H915        H  0.55449186  0.02841716  0.56926007     0.12400
H916        H  0.58526030  0.03523097  0.59955099     0.12200
H917        H  0.64482418  0.06738887  0.61993204     0.12700
H918        H  0.71986413  0.14553258  0.57594740     0.14700
C919        C  0.90253770  0.27582174  0.58324462    -0.05400
C920        C  0.94449316  0.30042488  0.57883669    -0.05300
C921        C  0.95699351  0.32996231  0.56493343    -0.23500
C922        C  0.92779291  0.33586074  0.55538492     0.18800
C923        C  0.88539975  0.30922300  0.55878525     0.16000
C924        C  0.87304173  0.27890215  0.57243594    -0.18500
C925        C  0.85611805  0.31535093  0.54946291    -0.20300
C926        C  0.86870652  0.34908498  0.53778861    -0.12900
C927        C  0.91072512  0.37701720  0.53503774     0.03800
C928        C  0.94022417  0.36956650  0.54346494    -0.25000
H929        H  0.96785066  0.29841990  0.58681928     0.08900
H930        H  0.98959784  0.34972543  0.56237634     0.12500
H931        H  0.84060008  0.26025703  0.57568037     0.12400
H932        H  0.82350949  0.29522987  0.55187389     0.12200
H933        H  0.84560095  0.35451481  0.53148342     0.12700
H934        H  0.97270016  0.39143354  0.54166056     0.14700
C935        C  0.07152926  0.80107233  0.79205851    -0.05400
C936        C  0.03426131  0.79867406  0.79722280    -0.05300
C937        C  0.00188411  0.78589580  0.78457247    -0.23500
C938        C  0.00673838  0.77618341  0.76646768     0.18800
C939        C  0.04371235  0.77707368  0.76150781     0.16000
C940        C  0.07540660  0.78878644  0.77436385    -0.18500
C941        C  0.04929330  0.76794370  0.74353273    -0.20300
C942        C  0.01852328  0.75783554  0.73051920    -0.12900
C943        C  0.98140641  0.75662061  0.73510809     0.03800
C944        C  0.97570802  0.76609482  0.75317466    -0.25000
H945        H  0.03117644  0.80909712  0.81066759     0.08900
H946        H  0.97382504  0.78534005  0.78870958     0.12500
H947        H  0.10448350  0.79148989  0.77022776     0.12400
H948        H  0.07748872  0.76860737  0.73951696     0.12200
H949        H  0.02358179  0.75027380  0.71678559     0.12700
H950        H  0.94694412  0.76445287  0.75697320     0.14700
C951        C  0.98540718  0.23620594  0.73624503    -0.05400
C952        C  0.02322218  0.26983903  0.73076259    -0.05300
C953        C  0.05662366  0.28759599  0.74273345    -0.23500
C954        C  0.05284646  0.27234340  0.76053675     0.18800
C955        C  0.01495391  0.23884101  0.76641634     0.16000
C956        C  0.98143366  0.22070623  0.75416773    -0.18500
C957        C  0.01153216  0.22397782  0.78437968    -0.20300
C958        C  0.04571636  0.24132324  0.79612289    -0.12900
C959        C  0.08358033  0.27387747  0.79010684     0.03800
C960        C  0.08675887  0.28960606  0.77239475    -0.25000
H961        H  0.02710357  0.28246321  0.71708620     0.08900
H962        H  0.08544898  0.31325237  0.73804520     0.12500
H963        H  0.95228813  0.19516011  0.75863912     0.12400
H964        H  0.98278760  0.19842214  0.78918702     0.12200
H965        H  0.04306764  0.22843784  0.80966986     0.12700
H966        H  0.11614396  0.31444845  0.76768976     0.14700
C967        C  0.33356111  0.48037667  0.66367062    -0.05400
C968        C  0.36344925  0.47708628  0.65331159    -0.05300
C969        C  0.36164037  0.43906975  0.65124060    -0.23500
C970        C  0.33026683  0.40380819  0.65972829     0.18800
C971        C  0.30100812  0.40699697  0.67080093     0.16000
C972        C  0.30259582  0.44518587  0.67255352    -0.18500
C973        C  0.27068522  0.37190072  0.67990298    -0.20300
C974        C  0.26953336  0.33402785  0.67810388    -0.12900
C975        C  0.29774712  0.33050954  0.66668554     0.03800
C976        C  0.32792141  0.36546822  0.65746282    -0.25000
H977        H  0.38750608  0.50367710  0.64628708     0.08900
H978        H  0.38456586  0.43718510  0.64287790     0.12500
H979        H  0.27960537  0.44744520  0.68071622     0.12400
H980        H  0.24826270  0.37387648  0.68858703     0.12200
H981        H  0.24659176  0.30746439  0.68555805     0.12700
H982        H  0.35054672  0.36308329  0.64905587     0.14700
C983        C  0.37056736  0.00347047  0.66612150    -0.05400
C984        C  0.39475252  0.99931309  0.65251325    -0.05300
C985        C  0.39764950  0.96337776  0.65152730    -0.23500
C986        C  0.37514794  0.93067595  0.66371358     0.18800
C987        C  0.35060202  0.93486087  0.67732056     0.16000
C988        C  0.34935256  0.97147012  0.67870664    -0.18500
C989        C  0.32650761  0.90189067  0.68899585    -0.20300
C990        C  0.32636243  0.86475297  0.68715741    -0.12900
C991        C  0.35109315  0.86030067  0.67394239     0.03800
C992        C  0.37588522  0.89353550  0.66234237    -0.25000
H993        H  0.41101466  0.02363303  0.64258937     0.08900
H994        H  0.41644877  0.96067712  0.64094108     0.12500
H995        H  0.32986823  0.97411348  0.68898929     0.12400
H996        H  0.30739624  0.90465944  0.69941167     0.12200
H997        H  0.30750679  0.83967448  0.69637711     0.12700
H998        H  0.39494222  0.89016095  0.65208468     0.14700
C999        C  0.25799217  0.02108215  0.73665514    -0.05400
C1000       C  0.25820691  0.98436563  0.73262543    -0.05300
C1001       C  0.24538964  0.95303097  0.74562995    -0.23500
C1002       C  0.23238512  0.95795373  0.76296002     0.18800
C1003       C  0.23292985  0.99508533  0.76737369     0.16000
C1004       C  0.24558385  0.02637445  0.75416373    -0.18500
C1005       C  0.21974113  0.99976968  0.78476109    -0.20300
C1006       C  0.20388303  0.96702497  0.79723421    -0.12900
C1007       C  0.20165155  0.92954259  0.79257310     0.03800
C1008       C  0.21710331  0.92561143  0.77564706    -0.25000
H1009       H  0.26797429  0.97967114  0.71931120     0.08900
H1010       H  0.24519772  0.92477145  0.74205802     0.12500
H1011       H  0.24591618  0.05480892  0.75753157     0.12400
H1012       H  0.22006069  0.02804940  0.78840444     0.12200
H1013       H  0.19121082  0.97008300  0.81008707     0.12700
H1014       H  0.21460958  0.89632744  0.77193635     0.14700
C1015       C  0.28244879  0.22537376  0.74960717    -0.05400
C1016       C  0.25916662  0.19450487  0.76253531    -0.05300
C1017       C  0.23971515  0.20246010  0.77708605    -0.23500
C1018       C  0.24302800  0.24139159  0.77895836     0.18800
C1019       C  0.26923354  0.27358666  0.76700876     0.16000
C1020       C  0.28907691  0.26550120  0.75256944    -0.18500
C1021       C  0.27281522  0.31262696  0.76886399    -0.20300
C1022       C  0.24838398  0.31889463  0.78148195    -0.12900
C1023       C  0.22024450  0.28641587  0.79253774     0.03800
C1024       C  0.21862566  0.24801808  0.79170760    -0.25000
H1025       H  0.25382575  0.16342162  0.76079023     0.08900
H1026       H  0.22031062  0.17754227  0.78627386     0.12500
H1027       H  0.30727470  0.28981137  0.74289276     0.12400
H1028       H  0.29295560  0.33774771  0.75992259     0.12200
H1029       H  0.24980642  0.34857411  0.78194825     0.12700
H1030       H  0.19675330  0.22284822  0.80019425     0.14700
C1031       C  0.37499764  0.09794049  0.58234735    -0.05400
C1032       C  0.39570667  0.12731568  0.56851698    -0.05300
C1033       C  0.41636486  0.11945326  0.55444454    -0.23500
C1034       C  0.41705289  0.08221409  0.55401482     0.18800
C1035       C  0.39392760  0.05133354  0.56706409     0.16000
C1036       C  0.37264258  0.05915302  0.58093080    -0.18500
C1037       C  0.39479327  0.01418775  0.56682769    -0.20300
C1038       C  0.42043747  0.00876916  0.55459869    -0.12900
C1039       C  0.44513809  0.04006994  0.54224582     0.03800
C1040       C  0.44244197  0.07628918  0.54157646    -0.25000
H1041       H  0.39793150  0.15733463  0.56912358     0.08900
H1042       H  0.43354736  0.14334801  0.54445332     0.12500
H1043       H  0.35670805  0.03598956  0.59137481     0.12400
H1044       H  0.37720612  0.99014562  0.57670067     0.12200
H1045       H  0.42256489  0.98091172  0.55535994     0.12700
H1046       H  0.46192774  0.10068852  0.53217390     0.14700
C1047       C  0.39541767  0.30372118  0.59441632    -0.05400
C1048       C  0.39032631  0.33794340  0.59808093    -0.05300
C1049       C  0.40293983  0.36991141  0.58546170    -0.23500
C1050       C  0.42098764  0.36834999  0.56893944     0.18800
C1051       C  0.42522877  0.33362720  0.56480104     0.16000
C1052       C  0.41229524  0.30143891  0.57755123    -0.18500
C1053       C  0.44373874  0.33246736  0.54827002    -0.20300
C1054       C  0.46021370  0.36652923  0.53654466    -0.12900
C1055       C  0.45757162  0.40162165  0.54105650     0.03800
C1056       C  0.43680649  0.40193019  0.55693370    -0.25000
H1057       H  0.37689057  0.34031010  0.61084004     0.08900
H1058       H  0.39934112  0.39622657  0.58879316     0.12500
H1059       H  0.41581535  0.27497857  0.57443355     0.12400
H1060       H  0.44715920  0.30610312  0.54483667     0.12200
H1061       H  0.47692081  0.36642347  0.52445745     0.12700
H1062       H  0.43557464  0.42948970  0.56051278     0.14700
C1063       C  0.95197462  0.29546218  0.98815494    -0.05400
C1064       C  0.91946449  0.26092848  0.99662294    -0.05300
C1065       C  0.91750112  0.22241842  0.99597661    -0.23500
C1066       C  0.94895694  0.21816722  0.98750624     0.18800
C1067       C  0.98212086  0.25292398  0.97918198     0.16000
C1068       C  0.98283326  0.29099866  0.97914954    -0.18500
C1069       C  0.01481276  0.24939933  0.97167685    -0.20300
C1070       C  0.01525390  0.21215149  0.97284391    -0.12900
C1071       C  0.98229851  0.17723257  0.98088683     0.03800
C1072       C  0.94875002  0.18028806  0.98787063    -0.25000
H1073       H  0.89562821  0.26379858  0.00374761     0.08900
H1074       H  0.89200935  0.19622858  0.00258097     0.12500
H1075       H  0.00853196  0.31774885  0.97292620     0.12400
H1076       H  0.04068266  0.27583213  0.96539572     0.12200
H1077       H  0.04149692  0.21063585  0.96753643     0.12700
H1078       H  0.92357757  0.15377735  0.99448250     0.14700
C1079       C  0.02581479  0.69695182  0.01264908    -0.05400
C1080       C  0.05405567  0.72682217  0.00057707    -0.05300
C1081       C  0.05956123  0.76669025  0.00035036    -0.23500
C1082       C  0.03583052  0.77698330  0.01174449     0.18800
C1083       C  0.00735877  0.74725121  0.02401640     0.16000
C1084       C  0.00331518  0.70773813  0.02472424    -0.18500
C1085       C  0.98198346  0.75692734  0.03465104    -0.20300
C1086       C  0.98365728  0.79504434  0.03257382    -0.12900
C1087       C  0.01191418  0.82462443  0.02043501     0.03800
C1088       C  0.03864978  0.81582228  0.01040802    -0.25000
H1089       H  0.07150609  0.71910682  0.99112176     0.08900
H1090       H  0.08129648  0.78902294  0.99077639     0.12500
H1091       H  0.98084519  0.68463757  0.03384022     0.12400
H1092       H  0.95978549  0.73445933  0.04404228     0.12200
H1093       H  0.96265188  0.80132448  0.04028567     0.12700
H1094       H  0.05992168  0.83836259  0.00074477     0.14700
C1095       C  0.12774347  0.74183583  0.87924508    -0.05400
C1096       C  0.14323378  0.71447313  0.87985497    -0.05300
C1097       C  0.12419838  0.67888032  0.89063886    -0.23500
C1098       C  0.08968129  0.67038959  0.90128217     0.18800
C1099       C  0.07313989  0.69719250  0.90034782     0.16000
C1100       C  0.09209128  0.73261435  0.88921129    -0.18500
C1101       C  0.03920443  0.68919645  0.91127269    -0.20300
C1102       C  0.02324031  0.65639674  0.92370046    -0.12900
C1103       C  0.04042892  0.63044317  0.92532155     0.03800
C1104       C  0.07287120  0.63688026  0.91355801    -0.25000
H1105       H  0.17096520  0.72145092  0.87240032     0.08900
H1106       H  0.13740713  0.65882412  0.89118138     0.12500
H1107       H  0.08048072  0.75406344  0.88899756     0.12400
H1108       H  0.02599475  0.70925666  0.91072746     0.12200
H1109       H  0.99820762  0.65220107  0.93253176     0.12700
H1110       H  0.08677980  0.61751138  0.91476709     0.14700
C1111       C  0.07305678  0.44161162  0.92880937    -0.05400
C1112       C  0.07646903  0.40818433  0.93567454    -0.05300
C1113       C  0.09021544  0.38697579  0.92469638    -0.23500
C1114       C  0.10097681  0.39848511  0.90644747     0.18800
C1115       C  0.09819619  0.43210716  0.89915390     0.16000
C1116       C  0.08437217  0.45377392  0.91043798    -0.18500
C1117       C  0.10959486  0.44332936  0.88077449    -0.20300
C1118       C  0.12522915  0.42271586  0.87013585    -0.12900
C1119       C  0.12909817  0.39005939  0.87756256     0.03800
C1120       C  0.11572328  0.37752077  0.89561239    -0.25000
H1121       H  0.06799867  0.39799115  0.94969031     0.08900
H1122       H  0.09236977  0.36142193  0.93052277     0.12500
H1123       H  0.08141864  0.47906210  0.90485717     0.12400
H1124       H  0.10773537  0.46891460  0.87481926     0.12200
H1125       H  0.13622292  0.43359566  0.85642241     0.12700
H1126       H  0.11911059  0.35275598  0.90156544     0.14700
C1127       C  0.17548912  0.19140075  0.01078476    -0.05400
C1128       C  0.20839183  0.18918459  0.01889575    -0.05300
C1129       C  0.24651911  0.22477447  0.02139812    -0.23500
C1130       C  0.25279798  0.26308978  0.01532543     0.18800
C1131       C  0.21995604  0.26576535  0.00710829     0.16000
C1132       C  0.18121877  0.23003045  0.00527918    -0.18500
C1133       C  0.22696590  0.30381092  0.00018019    -0.20300
C1134       C  0.26645765  0.33847852  0.00081601    -0.12900
C1135       C  0.29903285  0.33599022  0.00904914     0.03800
C1136       C  0.29182178  0.29844804  0.01665123    -0.25000
H1137       H  0.20464363  0.15977443  0.02323152     0.08900
H1138       H  0.27143076  0.22214413  0.02761165     0.12500
H1139       H  0.15617752  0.23194514  0.99875271     0.12400
H1140       H  0.20225668  0.30641496  0.99373625     0.12200
H1141       H  0.27168513  0.36718866  0.99479808     0.12700
H1142       H  0.31718431  0.29629995  0.02270284     0.14700
C1143       C  0.82277497  0.80860989  0.98748154    -0.05400
C1144       C  0.79264690  0.80787366  0.97577530    -0.05300
C1145       C  0.75542894  0.77126177  0.97300797    -0.23500
C1146       C  0.74719845  0.73519779  0.98242337     0.18800
C1147       C  0.77720919  0.73583790  0.99442231     0.16000
C1148       C  0.81516226  0.77227320  0.99651864    -0.18500
C1149       C  0.76813816  0.70048549  0.00461862    -0.20300
C1150       C  0.72927053  0.66521659  0.00337037    -0.12900
C1151       C  0.69938137  0.66419405  0.99140802     0.03800
C1152       C  0.70888326  0.69902576  0.98065090    -0.25000
H1153       H  0.79803180  0.83562640  0.96872919     0.08900
H1154       H  0.73265682  0.77142125  0.96386917     0.12500
H1155       H  0.83810809  0.77289808  0.00581418     0.12400
H1156       H  0.79064695  0.70056018  0.01400089     0.12200
H1157       H  0.72234583  0.63882212  0.01188745     0.12700
H1158       H  0.68557757  0.69876549  0.97170848     0.14700
C1159       C  0.54473974  0.62539636  0.92182423    -0.05400
C1160       C  0.51230181  0.62355879  0.91129897    -0.05300
C1161       C  0.52018501  0.64918030  0.89614943    -0.23500
C1162       C  0.56072487  0.67724685  0.89108489     0.18800
C1163       C  0.59380459  0.67868359  0.90108564     0.16000
C1164       C  0.58563283  0.65280169  0.91642782    -0.18500
C1165       C  0.63439252  0.70696865  0.89588360    -0.20300
C1166       C  0.64199392  0.73526424  0.88174780    -0.12900
C1167       C  0.60919069  0.73542627  0.87246689     0.03800
C1168       C  0.56863408  0.70534902  0.87678721    -0.25000
H1169       H  0.48053324  0.60252214  0.91489884     0.08900
H1170       H  0.49447368  0.64753640  0.88858174     0.12500
H1171       H  0.61100927  0.65420369  0.92419103     0.12400
H1172       H  0.66021725  0.70849451  0.90329640     0.12200
H1173       H  0.67340825  0.75879910  0.87886479     0.12700
H1174       H  0.54322122  0.70586549  0.86986972     0.14700
C1175       C  0.24988319  0.37294106  0.88390568    -0.05400
C1176       C  0.23948195  0.34491352  0.89837882    -0.05300
C1177       C  0.26925134  0.34927712  0.91102590    -0.23500
C1178       C  0.30964663  0.38210805  0.90944122     0.18800
C1179       C  0.32059333  0.40980150  0.89453760     0.16000
C1180       C  0.29054454  0.40488476  0.88175254    -0.18500
C1181       C  0.36085954  0.44298844  0.89320927    -0.20300
C1182       C  0.38914697  0.45044289  0.90721560    -0.12900
C1183       C  0.37770679  0.42442309  0.92260611     0.03800
C1184       C  0.33850282  0.38913424  0.92314248    -0.25000
H1185       H  0.20806166  0.32011099  0.90003503     0.08900
H1186       H  0.26039052  0.32782284  0.92236394     0.12500
H1187       H  0.29827557  0.42647340  0.87051728     0.12400
H1188       H  0.36986379  0.46430565  0.88181346     0.12200
H1189       H  0.41927791  0.47775278  0.90643533     0.12700
H1190       H  0.32923298  0.36882796  0.93492909     0.14700
C1191       C  0.69589279  0.02504332  0.99855446    -0.05400
C1192       C  0.72635963  0.05038838  0.98603159    -0.05300
C1193       C  0.76384209  0.05073566  0.98549885    -0.23500
C1194       C  0.77051199  0.02450481  0.99699486     0.18800
C1195       C  0.73987148  0.99888088  0.00963411     0.16000
C1196       C  0.70319909  0.00013458  0.01064309    -0.18500
C1197       C  0.74567804  0.97118673  0.02048633    -0.20300
C1198       C  0.78122326  0.96819567  0.01851654    -0.12900
C1199       C  0.81184354  0.99365726  0.00604229     0.03800
C1200       C  0.80661733  0.02229877  0.99556161    -0.25000
H1201       H  0.72093320  0.06950688  0.97656298     0.08900
H1202       H  0.78700141  0.07039972  0.97567986     0.12500
H1203       H  0.67928670  0.97985454  0.02006956     0.12400
H1204       H  0.72231989  0.95117760  0.03015720     0.12200
H1205       H  0.78482990  0.94606648  0.02674495     0.12700
H1206       H  0.82993514  0.04173870  0.98573324     0.14700
C1207       C  0.18706523  0.00699574  0.99424497    -0.05400
C1208       C  0.21598147  0.02827771  0.98043232    -0.05300
C1209       C  0.25140190  0.02474805  0.97886201    -0.23500
C1210       C  0.25900931  0.00078989  0.99140400     0.18800
C1211       C  0.23042205  0.97983105  0.00554619     0.16000
C1212       C  0.19434604  0.98246711  0.00666384    -0.18500
C1213       C  0.23892461  0.95748470  0.01861225    -0.20300
C1214       C  0.27595795  0.95679404  0.01795703    -0.12900
C1215       C  0.30441834  0.97722515  0.00387658     0.03800
C1216       C  0.29534051  0.99853934  0.99042016    -0.25000
H1217       H  0.21093173  0.04725465  0.97073071     0.08900
H1218       H  0.27316526  0.04127756  0.96801810     0.12500
H1219       H  0.17247096  0.96637456  0.01754587     0.12400
H1220       H  0.21744945  0.94148258  0.02962103     0.12200
H1221       H  0.28256175  0.94057867  0.02853532     0.12700
H1222       H  0.31758310  0.01520743  0.97973888     0.14700
C1223       C  0.24956266  0.88035531  0.88318605    -0.05400
C1224       C  0.24190091  0.90078574  0.89744642    -0.05300
C1225       C  0.27311541  0.92569983  0.90971714    -0.23500
C1226       C  0.31249821  0.93021376  0.90805261     0.18800
C1227       C  0.32088312  0.91056784  0.89346531     0.16000
C1228       C  0.28932614  0.88585311  0.88101105    -0.18500
C1229       C  0.36015460  0.91462003  0.89209769    -0.20300
C1230       C  0.39001697  0.93594898  0.90557958    -0.12900
C1231       C  0.38143738  0.95418172  0.92057000     0.03800
C1232       C  0.34289937  0.95231713  0.92128922    -0.25000
H1233       H  0.21132566  0.89658363  0.89932238     0.08900
H1234       H  0.26610557  0.94043205  0.92083657     0.12500
H1235       H  0.29514491  0.86974982  0.87009006     0.12400
H1236       H  0.36725732  0.89992323  0.88099761     0.12200
H1237       H  0.41926918  0.93669089  0.90465268     0.12700
H1238       H  0.33547779  0.96580243  0.93279119     0.14700
C1239       C  0.56097907  0.91968714  0.92885731    -0.05400
C1240       C  0.59376262  0.91385154  0.93438699    -0.05300
C1241       C  0.61149448  0.89832261  0.92226291    -0.23500
C1242       C  0.59709756  0.88861019  0.90424480     0.18800
C1243       C  0.56455636  0.89476468  0.89830732     0.16000
C1244       C  0.54643930  0.91005937  0.91070789    -0.18500
C1245       C  0.55049823  0.88498560  0.88014561    -0.20300
C1246       C  0.56743431  0.86779391  0.86828045    -0.12900
C1247       C  0.59899425  0.86065151  0.87432218     0.03800
C1248       C  0.61414486  0.87185506  0.89223386    -0.25000
H1249       H  0.60567949  0.92113965  0.94823434     0.08900
H1250       H  0.63640624  0.89378619  0.92701172     0.12500
H1251       H  0.52161340  0.91498881  0.90620318     0.12400
H1252       H  0.52571128  0.88957732  0.87528231     0.12200
H1253       H  0.55491934  0.85866883  0.85460463     0.12700
H1254       H  0.63823323  0.86599630  0.89699309     0.14700
C1255       C  0.86806435  0.63006567  0.12028703    -0.05400
C1256       C  0.90651096  0.65697752  0.11250315    -0.05300
C1257       C  0.92468643  0.64227336  0.10006186    -0.23500
C1258       C  0.90442918  0.60045053  0.09498781     0.18800
C1259       C  0.86644384  0.57278590  0.10322333     0.16000
C1260       C  0.84861689  0.58773840  0.11587149    -0.18500
C1261       C  0.84626360  0.53096364  0.09814172    -0.20300
C1262       C  0.86312296  0.51681773  0.08473720    -0.12900
C1263       C  0.90024451  0.54429210  0.07601076     0.03800
C1264       C  0.92094590  0.58609746  0.08143712    -0.25000
H1265       H  0.92148569  0.68974388  0.11535364     0.08900
H1266       H  0.95387931  0.66390660  0.09388984     0.12500
H1267       H  0.81860933  0.56689185  0.12161684     0.12400
H1268       H  0.81713705  0.50928534  0.10435246     0.12200
H1269       H  0.84668319  0.48452608  0.08092717     0.12700
H1270       H  0.94990808  0.60762674  0.07503737     0.14700
C1271       C  0.74698662  0.64771522  0.11812019    -0.05400
C1272       C  0.74982971  0.67766917  0.10572690    -0.05300
C1273       C  0.71796967  0.66837491  0.09330352    -0.23500
C1274       C  0.68311719  0.62884212  0.09305377     0.18800
C1275       C  0.67915669  0.59936311  0.10624787     0.16000
C1276       C  0.71113722  0.60908530  0.11876439    -0.18500
C1277       C  0.64443481  0.55987299  0.10597995    -0.20300
C1278       C  0.61543084  0.54859574  0.09194802    -0.12900
C1279       C  0.62058083  0.57668866  0.07797180     0.03800
C1280       C  0.65357367  0.61743877  0.07912711    -0.25000
H1281       H  0.77751787  0.70756882  0.10514640     0.08900
H1282       H  0.72142468  0.69142621  0.08336675     0.12500
H1283       H  0.70921468  0.58601034  0.12834721     0.12400
H1284       H  0.64072435  0.53706457  0.11610416     0.12200
H1285       H  0.59019909  0.51710949  0.09150462     0.12700
H1286       H  0.65781341  0.63955946  0.06854224     0.14700
C1287       C  0.66506682  0.14905751  0.31532074    -0.05400
C1288       C  0.69478654  0.14751054  0.30409705    -0.05300
C1289       C  0.69615438  0.11094235  0.30225626    -0.23500
C1290       C  0.66841196  0.07551542  0.31193716     0.18800
C1291       C  0.63805014  0.07655550  0.32307417     0.16000
C1292       C  0.63605330  0.11300649  0.32439198    -0.18500
C1293       C  0.61144388  0.04172233  0.33339498    -0.20300
C1294       C  0.61592244  0.00673801  0.33323561    -0.12900
C1295       C  0.64614207  0.00553683  0.32230043     0.03800
C1296       C  0.67166251  0.03966463  0.31131525    -0.25000
H1297       H  0.71753988  0.17484542  0.29701327     0.08900
H1298       H  0.71976052  0.11075781  0.29373511     0.12500
H1299       H  0.61334174  0.11387503  0.33331030     0.12400
H1300       H  0.58812344  0.04205067  0.34206925     0.12200
H1301       H  0.59610771  0.98073772  0.34183459     0.12700
H1302       H  0.69556618  0.03915987  0.30311672     0.14700
C1303       C  0.69463117  0.66281600  0.35013312    -0.05400
C1304       C  0.72350849  0.65957918  0.33906124    -0.05300
C1305       C  0.72578158  0.62337763  0.33892776    -0.23500
C1306       C  0.69815546  0.58928031  0.34936990     0.18800
C1307       C  0.66946563  0.59239502  0.36086506     0.16000
C1308       C  0.66859018  0.62959031  0.36152732    -0.18500
C1309       C  0.64070105  0.55755826  0.37065481    -0.20300
C1310       C  0.63897681  0.51948241  0.36828514    -0.12900
C1311       C  0.66675316  0.51592911  0.35650406     0.03800
C1312       C  0.69724283  0.55146901  0.34763142    -0.25000
H1313       H  0.74380616  0.68485717  0.33022975     0.08900
H1314       H  0.74792013  0.62142757  0.33003359     0.12500
H1315       H  0.64581941  0.63171635  0.36991962     0.12400
H1316       H  0.61845160  0.55934625  0.37953312     0.12200
H1317       H  0.61533946  0.49264195  0.37533332     0.12700
H1318       H  0.71870667  0.54922367  0.33838798     0.14700
C1319       C  0.63009813  0.92092741  0.41149990    -0.05400
C1320       C  0.61783713  0.89670186  0.42748026    -0.05300
C1321       C  0.60103973  0.90713787  0.44225231    -0.23500
C1322       C  0.59555114  0.94157557  0.44118176     0.18800
C1323       C  0.61030431  0.96764097  0.42567386     0.16000
C1324       C  0.62812315  0.95754639  0.41110229    -0.18500
C1325       C  0.60411952  0.00161205  0.42436237    -0.20300
C1326       C  0.58079027  0.00784995  0.43755411    -0.12900
C1327       C  0.56397563  0.98073931  0.45242137     0.03800
C1328       C  0.57280580  0.94860084  0.45460673    -0.25000
H1329       H  0.61949522  0.86859999  0.42824434     0.08900
H1330       H  0.59029758  0.88701258  0.45408712     0.12500
H1331       H  0.63742700  0.97652414  0.39888118     0.12400
H1332       H  0.61520525  0.02191184  0.41259009     0.12200
H1333       H  0.57368771  0.03240495  0.43560123     0.12700
H1334       H  0.55917080  0.92723069  0.46591424     0.14700
C1335       C  0.57647946  0.71036267  0.41138711    -0.05400
C1336       C  0.54394703  0.71047937  0.42095542    -0.05300
C1337       C  0.52463274  0.68305295  0.43540858    -0.23500
C1338       C  0.53774315  0.65528168  0.44062351     0.18800
C1339       C  0.57099474  0.65550706  0.43134474     0.16000
C1340       C  0.58997199  0.68285584  0.41677469    -0.18500
C1341       C  0.58411377  0.62771049  0.43651569    -0.20300
C1342       C  0.56318808  0.59857184  0.45016851    -0.12900
C1343       C  0.52919529  0.59713230  0.45898208     0.03800
C1344       C  0.51721498  0.62623457  0.45447139    -0.25000
H1345       H  0.53318640  0.73155746  0.41716541     0.08900
H1346       H  0.49920966  0.68330598  0.44239250     0.12500
H1347       H  0.61537178  0.68276195  0.40967408     0.12400
H1348       H  0.60956394  0.62749828  0.42953795     0.12200
H1349       H  0.57209515  0.57566835  0.45317051     0.12700
H1350       H  0.49049167  0.62465456  0.46105804     0.14700
C1351       C  0.71673345  0.75214193  0.26030964    -0.05400
C1352       C  0.70767010  0.71104895  0.25822568    -0.05300
C1353       C  0.72417887  0.69980209  0.24359877    -0.23500
C1354       C  0.75059448  0.72963850  0.23103934     0.18800
C1355       C  0.75843879  0.77064005  0.23256844     0.16000
C1356       C  0.74081806  0.78136585  0.24692998    -0.18500
C1357       C  0.78591568  0.80090712  0.22042364    -0.20300
C1358       C  0.80728359  0.79112090  0.20754263    -0.12900
C1359       C  0.80055452  0.75080480  0.20634308     0.03800
C1360       C  0.77130398  0.71984094  0.21769786    -0.25000
H1361       H  0.68914707  0.68792639  0.26828332     0.08900
H1362       H  0.71780705  0.66822073  0.24259400     0.12500
H1363       H  0.74818328  0.81321584  0.24830720     0.12400
H1364       H  0.79236229  0.83250839  0.22148240     0.12200
H1365       H  0.83024492  0.81527324  0.19899400     0.12700
H1366       H  0.76683418  0.68887891  0.21692690     0.14700
C1367       C  0.47932102  0.14659056  0.34720006    -0.05400
C1368       C  0.47378860  0.11871067  0.36127121    -0.05300
C1369       C  0.43549629  0.08312292  0.36387380    -0.23500
C1370       C  0.40239018  0.07407123  0.35206076     0.18800
C1371       C  0.40763299  0.10194295  0.33785203     0.16000
C1372       C  0.44573309  0.13838870  0.33576594    -0.18500
C1373       C  0.37518675  0.09212742  0.32555419    -0.20300
C1374       C  0.33849179  0.05438051  0.32686754    -0.12900
C1375       C  0.33298242  0.02612176  0.34080596     0.03800
C1376       C  0.36481206  0.03680074  0.35369101    -0.25000
H1377       H  0.49913252  0.12452708  0.37027625     0.08900
H1378       H  0.43211151  0.06209295  0.37482132     0.12500
H1379       H  0.44981426  0.15950870  0.32473146     0.12400
H1380       H  0.37870172  0.11302773  0.31452387     0.12200
H1381       H  0.31465585  0.04689377  0.31672315     0.12700
H1382       H  0.36132810  0.01503745  0.36431859     0.14700
C1383       C  0.99546062  0.62882065  0.32486022    -0.05400
C1384       C  0.99172048  0.59624458  0.33579388    -0.05300
C1385       C  0.95426931  0.55918809  0.33670387    -0.23500
C1386       C  0.91960585  0.55478868  0.32724545     0.18800
C1387       C  0.92310772  0.58740508  0.31619115     0.16000
C1388       C  0.96125922  0.62376127  0.31470875    -0.18500
C1389       C  0.88800108  0.58382534  0.30747653    -0.20300
C1390       C  0.84950355  0.54866621  0.31008405    -0.12900
C1391       C  0.84571508  0.51603496  0.32100935     0.03800
C1392       C  0.88115473  0.51903514  0.32925772    -0.25000
H1393       H  0.01762342  0.59971033  0.34381267     0.08900
H1394       H  0.95202442  0.53453539  0.34532147     0.12500
H1395       H  0.96368709  0.64914371  0.30655112     0.12400
H1396       H  0.89013096  0.60868931  0.29904763     0.12200
H1397       H  0.82266905  0.54701125  0.30360587     0.12700
H1398       H  0.87852223  0.49428424  0.33793797     0.14700
C1399       C  0.02772525  0.57429428  0.45252940    -0.05400
C1400       C  0.99653911  0.57492546  0.44209296    -0.05300
C1401       C  0.00606461  0.60667761  0.42953148    -0.23500
C1402       C  0.04701395  0.63814147  0.42716403     0.18800
C1403       C  0.07828357  0.63870534  0.43825983     0.16000
C1404       C  0.06842789  0.60677126  0.45087504    -0.18500
C1405       C  0.11917247  0.67008561  0.43591958    -0.20300
C1406       C  0.12937063  0.69944711  0.42209861    -0.12900
C1407       C  0.09890891  0.69796759  0.41029413     0.03800
C1408       C  0.05749300  0.66780947  0.41330119    -0.25000
H1409       H  0.96512122  0.54974505  0.44304929     0.08900
H1410       H  0.98166905  0.60575926  0.42118088     0.12500
H1411       H  0.09258832  0.60601396  0.45878663     0.12400
H1412       H  0.14349098  0.67109655  0.44436348     0.12200
H1413       H  0.16148626  0.72218729  0.42012949     0.12700
H1414       H  0.03361474  0.66627076  0.40436565     0.14700
C1415       C  0.42191175  0.95283528  0.45029055    -0.05400
C1416       C  0.41249874  0.98141675  0.44241745    -0.05300
C1417       C  0.38104913  0.96870745  0.42940626    -0.23500
C1418       C  0.35859281  0.92717053  0.42402176     0.18800
C1419       C  0.36708685  0.89794029  0.43224080     0.16000
C1420       C  0.39887140  0.91101748  0.44526615    -0.18500
C1421       C  0.34419218  0.85633626  0.42699787    -0.20300
C1422       C  0.31349377  0.84385988  0.41358130    -0.12900
C1423       C  0.30554743  0.87284105  0.40495789     0.03800
C1424       C  0.32819541  0.91451521  0.41038061    -0.25000
H1425       H  0.43049318  0.01382840  0.44590703     0.08900
H1426       H  0.37487809  0.99150555  0.42326988     0.12500
H1427       H  0.40649646  0.88899789  0.45116127     0.12400
H1428       H  0.35014260  0.83346703  0.43321750     0.12200
H1429       H  0.29631458  0.81158838  0.40977800     0.12700
H1430       H  0.32197482  0.93714972  0.40408124     0.14700
C1431       C  0.02125892  0.77782749  0.26263647    -0.05400
C1432       C  0.98408439  0.74109995  0.26596461    -0.05300
C1433       C  0.95266042  0.72510022  0.25291909    -0.23500
C1434       C  0.95783408  0.74527167  0.23615938     0.18800
C1435       C  0.99496240  0.78218669  0.23253906     0.16000
C1436       C  0.02637503  0.79844458  0.24586564    -0.18500
C1437       C  0.99978087  0.80229280  0.21570275    -0.20300
C1438       C  0.96755273  0.78674836  0.20291606    -0.12900
C1439       C  0.93034165  0.75067405  0.20667932     0.03800
C1440       C  0.92593761  0.72969962  0.22319280    -0.25000
H1441       H  0.97929545  0.72447045  0.27870566     0.08900
H1442       H  0.92434915  0.69686944  0.25592757     0.12500
H1443       H  0.05500173  0.82648972  0.24302866     0.12400
H1444       H  0.02792874  0.83064594  0.21266953     0.12200
H1445       H  0.97087480  0.80393057  0.19048161     0.12700
H1446       H  0.89676561  0.70247807  0.22631595     0.14700
C1447       C  0.88024196  0.23141974  0.11326865    -0.05400
C1448       C  0.91412531  0.23656842  0.10298710    -0.05300
C1449       C  0.93519710  0.27087108  0.09158035    -0.23500
C1450       C  0.92250256  0.30040293  0.09024450     0.18800
C1451       C  0.88922385  0.29608249  0.10103042     0.16000
C1452       C  0.86821636  0.26151552  0.11243864    -0.18500
C1453       C  0.87665907  0.32567408  0.09974317    -0.20300
C1454       C  0.89541341  0.35805930  0.08718817    -0.12900
C1455       C  0.92696390  0.36135384  0.07563543     0.03800
C1456       C  0.94126115  0.33308122  0.07770271    -0.25000
H1457       H  0.92360143  0.21348464  0.10349328     0.08900
H1458       H  0.96071860  0.27375285  0.08346021     0.12500
H1459       H  0.84196427  0.25743594  0.12036836     0.12400
H1460       H  0.85137203  0.32297305  0.10798784     0.12200
H1461       H  0.88364271  0.37921773  0.08584421     0.12700
H1462       H  0.96567216  0.33532057  0.06894552     0.14700
C1463       C  0.61846516  0.03951931  0.08147086    -0.05400
C1464       C  0.61752442  0.06670602  0.09456278    -0.05300
C1465       C  0.64945955  0.08648889  0.10732484    -0.23500
C1466       C  0.68309233  0.07962284  0.10722252     0.18800
C1467       C  0.68302650  0.05021575  0.09500523     0.16000
C1468       C  0.65056937  0.03005523  0.08238567    -0.18500
C1469       C  0.71671192  0.04338241  0.09482230    -0.20300
C1470       C  0.75107854  0.06705567  0.10589959    -0.12900
C1471       C  0.75220752  0.09765269  0.11742356     0.03800
C1472       C  0.71773819  0.10318883  0.11838756    -0.25000
H1473       H  0.59334902  0.07465262  0.09426501     0.08900
H1474       H  0.64878548  0.10863885  0.11669993     0.12500
H1475       H  0.65187049  0.00912756  0.07246837     0.12400
H1476       H  0.71719559  0.02092496  0.08557822     0.12200
H1477       H  0.77758533  0.06272724  0.10492408     0.12700
H1478       H  0.71877605  0.12710573  0.12716680     0.14700
C1479       C  0.76938477  0.96014040  0.25968834    -0.05400
C1480       C  0.80272242  0.95936278  0.25118149    -0.05300
C1481       C  0.82273400  0.98485838  0.23624009    -0.23500
C1482       C  0.80953797  0.01135479  0.22931515     0.18800
C1483       C  0.77582252  0.01225281  0.23757579     0.16000
C1484       C  0.75618552  0.98691809  0.25279480    -0.18500
C1485       C  0.76257913  0.03871105  0.23052872    -0.20300
C1486       C  0.78322238  0.06477626  0.21578055    -0.12900
C1487       C  0.81729184  0.06470097  0.20777742     0.03800
C1488       C  0.83004548  0.03758089  0.21451328    -0.25000
H1489       H  0.81347634  0.93901354  0.25612025     0.08900
H1490       H  0.84852876  0.98378514  0.23007774     0.12500
H1491       H  0.73026974  0.98759095  0.25906628     0.12400
H1492       H  0.73685243  0.03991842  0.23668184     0.12200
H1493       H  0.77371392  0.08629728  0.21109285     0.12700
H1494       H  0.85685764  0.03803976  0.20860338     0.14700
C1495       C  0.41151873  0.27230711  0.12979233    -0.05400
C1496       C  0.44700432  0.30947761  0.13432181    -0.05300
C1497       C  0.46358151  0.34243050  0.12189790    -0.23500
C1498       C  0.44517740  0.33827619  0.10465736     0.18800
C1499       C  0.40844376  0.30136240  0.10043191     0.16000
C1500       C  0.39171169  0.26887539  0.11306067    -0.18500
C1501       C  0.38987343  0.29668131  0.08331664    -0.20300
C1502       C  0.40768956  0.32802174  0.07035329    -0.12900
C1503       C  0.44453380  0.36482142  0.07414152     0.03800
C1504       C  0.46318278  0.36984763  0.09143073    -0.25000
H1505       H  0.46306886  0.31215892  0.14704273     0.08900
H1506       H  0.49162414  0.37044232  0.12546386     0.12500
H1507       H  0.36476250  0.23984739  0.10943361     0.12400
H1508       H  0.36174556  0.26860773  0.07987608     0.12200
H1509       H  0.39244262  0.32330638  0.05722863     0.12700
H1510       H  0.49119624  0.39824394  0.09463302     0.14700
C1511       C  0.44288169  0.08032342  0.07378096    -0.05400
C1512       C  0.40527617  0.07929866  0.07058536    -0.05300
C1513       C  0.38851731  0.09387195  0.08367615    -0.23500
C1514       C  0.40893601  0.10975652  0.10030071     0.18800
C1515       C  0.44669569  0.11096700  0.10382617     0.16000
C1516       C  0.46355120  0.09634468  0.09050863    -0.18500
C1517       C  0.46714174  0.12739441  0.12049825    -0.20300
C1518       C  0.45110086  0.14391481  0.13316825    -0.12900
C1519       C  0.41416589  0.14361765  0.12945935     0.03800
C1520       C  0.39282040  0.12576575  0.11317575    -0.25000
H1521       H  0.38856852  0.06708787  0.05789223     0.08900
H1522       H  0.35963634  0.09286922  0.08075235     0.12500
H1523       H  0.49237492  0.09706325  0.09323623     0.12400
H1524       H  0.49613833  0.12870002  0.12346004     0.12200
H1525       H  0.46842247  0.15864461  0.14546334     0.12700
H1526       H  0.36482560  0.12651999  0.11012350     0.14700
C1527       C  0.30124472  0.08451422  0.21647719    -0.05400
C1528       C  0.33022045  0.08862109  0.22970426    -0.05300
C1529       C  0.32114053  0.05699035  0.24223171    -0.23500
C1530       C  0.28272273  0.02073784  0.24180625     0.18800
C1531       C  0.25384057  0.01553782  0.22808401     0.16000
C1532       C  0.26331610  0.04755474  0.21543937    -0.18500
C1533       C  0.21535864  0.97924984  0.22784047    -0.20300
C1534       C  0.20474805  0.94957171  0.24164317    -0.12900
C1535       C  0.23253753  0.95541994  0.25588275     0.03800
C1536       C  0.27207279  0.99060453  0.25544038    -0.25000
H1537       H  0.35933794  0.11711009  0.23077148     0.08900
H1538       H  0.34362602  0.06149184  0.25265897     0.12500
H1539       H  0.24072033  0.04455490  0.20534807     0.12400
H1540       H  0.19289482  0.97450763  0.21736495     0.12200
H1541       H  0.17417217  0.92279352  0.24153981     0.12700
H1542       H  0.29397389  0.99573824  0.26625909     0.14700
C1543       C  0.34739997  0.33246286  0.34589966    -0.05400
C1544       C  0.37553908  0.35456719  0.35994126    -0.05300
C1545       C  0.41529038  0.36006651  0.35961903    -0.23500
C1546       C  0.42722840  0.34310243  0.34536461     0.18800
C1547       C  0.39860409  0.31975775  0.33151454     0.16000
C1548       C  0.35903072  0.31473778  0.33184518    -0.18500
C1549       C  0.41001197  0.30186947  0.31749572    -0.20300
C1550       C  0.44919454  0.30620463  0.31742391    -0.12900
C1551       C  0.47780145  0.32924528  0.33111962     0.03800
C1552       C  0.46698998  0.34836579  0.34488201    -0.25000
H1553       H  0.36736927  0.36903245  0.37076231     0.08900
H1554       H  0.43675997  0.37787267  0.37039011     0.12500
H1555       H  0.33747642  0.29762058  0.32097013     0.12400
H1556       H  0.38839134  0.28387194  0.30680413     0.12200
H1557       H  0.45701531  0.29102815  0.30679646     0.12700
H1558       H  0.48875872  0.36551693  0.35568186     0.14700
C1559       C  0.98482874  0.34063965  0.31810447    -0.05400
C1560       C  0.95622105  0.31937211  0.30409173    -0.05300
C1561       C  0.91632364  0.31360468  0.30495797    -0.23500
C1562       C  0.90449795  0.32934636  0.31976326     0.18800
C1563       C  0.93366169  0.35239518  0.33347764     0.16000
C1564       C  0.97345731  0.35774179  0.33259040    -0.18500
C1565       C  0.92239887  0.36927619  0.34800122    -0.20300
C1566       C  0.88262290  0.36351990  0.34892011    -0.12900
C1567       C  0.85312451  0.33996646  0.33559037     0.03800
C1568       C  0.86417072  0.32270378  0.32106594    -0.25000
H1569       H  0.96408347  0.30554849  0.29289113     0.08900
H1570       H  0.89451045  0.29619261  0.29422616     0.12500
H1571       H  0.99530031  0.37436520  0.34344693     0.12400
H1572       H  0.94447126  0.38728417  0.35855154     0.12200
H1573       H  0.87489241  0.37769128  0.36002588     0.12700
H1574       H  0.84188598  0.30551150  0.31044100     0.14700
C1575       C  0.06856097  0.36947118  0.40535021    -0.05400
C1576       C  0.02560246  0.35261131  0.40627848    -0.05300
C1577       C  0.00814125  0.36718582  0.41911945    -0.23500
C1578       C  0.03336312  0.39933946  0.43106645     0.18800
C1579       C  0.07647197  0.41547825  0.43070339     0.16000
C1580       C  0.09366756  0.39998722  0.41809125    -0.18500
C1581       C  0.10191167  0.44844258  0.44225568    -0.20300
C1582       C  0.08496008  0.46640691  0.45349941    -0.12900
C1583       C  0.04232885  0.45117766  0.45363294     0.03800
C1584       C  0.01649778  0.41707366  0.44269057    -0.25000
H1585       H  0.00553876  0.32917267  0.39662328     0.08900
H1586       H  0.97505019  0.35444376  0.41920726     0.12500
H1587       H  0.12685808  0.41364638  0.41745320     0.12400
H1588       H  0.13502183  0.46133222  0.44207944     0.12200
H1589       H  0.10519738  0.49307884  0.46169820     0.12700
H1590       H  0.98364055  0.40589911  0.44254034     0.14700
C1591       C  0.28571874  0.42993418  0.40983292    -0.05400
C1592       C  0.28709135  0.46277517  0.41981355    -0.05300
C1593       C  0.31473656  0.48060057  0.43444600    -0.23500
C1594       C  0.34108861  0.46551552  0.43951131     0.18800
C1595       C  0.33907310  0.43173940  0.42990185     0.16000
C1596       C  0.31172127  0.41443607  0.41512919    -0.18500
C1597       C  0.36511722  0.41635427  0.43494777    -0.20300
C1598       C  0.39426757  0.43542800  0.44885257    -0.12900
C1599       C  0.39771367  0.46999653  0.45806313     0.03800
C1600       C  0.37038660  0.48441225  0.45356257    -0.25000
H1601       H  0.26722641  0.47505611  0.41613634     0.08900
H1602       H  0.31575772  0.50641326  0.44169751     0.12500
H1603       H  0.31064613  0.38868765  0.40777302     0.12400
H1604       H  0.36391706  0.39043881  0.42770864     0.12200
H1605       H  0.41569204  0.42457891  0.45175456     0.12700
H1606       H  0.37341387  0.51157050  0.46039562     0.14700
C1607       C  0.94656973  0.19320914  0.20162332    -0.05400
C1608       C  0.94725107  0.22804921  0.20922995    -0.05300
C1609       C  0.97522210  0.25045804  0.22312147    -0.23500
C1610       C  0.00263585  0.23804000  0.22968667     0.18800
C1611       C  0.00403948  0.20471519  0.22119808     0.16000
C1612       C  0.97612823  0.18265339  0.20712875    -0.18500
C1613       C  0.03167711  0.19252764  0.22764450    -0.20300
C1614       C  0.05651378  0.21203472  0.24284454    -0.12900
C1615       C  0.05390315  0.24382810  0.25196684     0.03800
C1616       C  0.02742850  0.25725040  0.24504673    -0.25000
H1617       H  0.92417228  0.23608976  0.20533137     0.08900
H1618       H  0.97395715  0.27613723  0.22936492     0.12500
H1619       H  0.97523913  0.15540873  0.20141106     0.12400
H1620       H  0.03341483  0.16729178  0.22119619     0.12200
H1621       H  0.07716553  0.20160623  0.24770818     0.12700
H1622       H  0.02582315  0.28238001  0.25170019     0.14700
C1623       C  0.28869849  0.20944586  0.21390446    -0.05400
C1624       C  0.24617175  0.19482589  0.21409230    -0.05300
C1625       C  0.22996908  0.21515761  0.22425863    -0.23500
C1626       C  0.25602048  0.25004468  0.23472272     0.18800
C1627       C  0.29904165  0.26566053  0.23428340     0.16000
C1628       C  0.31519070  0.24543929  0.22372095    -0.18500
C1629       C  0.32485653  0.29992472  0.24514415    -0.20300
C1630       C  0.30805731  0.31685150  0.25718541    -0.12900
C1631       C  0.26517020  0.30039434  0.25832733     0.03800
C1632       C  0.23949869  0.26798526  0.24643616    -0.25000
H1633       H  0.22541642  0.16700900  0.20667087     0.08900
H1634       H  0.19692262  0.20270786  0.22446417     0.12500
H1635       H  0.34801586  0.25646760  0.22376523     0.12400
H1636       H  0.35791271  0.31245318  0.24494528     0.12200
H1637       H  0.32856917  0.34176407  0.26615226     0.12700
H1638       H  0.20635880  0.25463472  0.24722826     0.14700
loop_ 
_geom_bond_atom_site_label_1 
_geom_bond_atom_site_label_2 
_geom_bond_distance 
_geom_bond_site_symmetry_2 
_ccdc_geom_bond_type 
O1           Mg3   2.150       .  S
O1           Mg9   2.158       .  S
O1           C36   1.234       .  S
C2           O15   1.235       .  S
C2           O39   1.270       .  A
C2           H41   1.081       .  S
Mg3          O32   2.157       .  S
Mg3          O47   2.291       .  S
Mg3          O43   2.262       .  S
Mg3          O14   2.292       .  S
O4          Mg46   2.151       .  S
O4          Mg29   2.140       .  S
O4           C25   1.235       .  S
O5           C36   1.268       .  A
O5          Mg29   2.295       .  S
C6            O8   1.276       .  A
C6           O20   1.273       .  A
C6         C1591   1.487       .  S
O7           C35   1.271       .  A
O7           Mg9   2.305       .  S
O8          Mg40   2.302       .  S
Mg9          O15   2.153       .  S
Mg9          O23   2.282       .  S
Mg9          O11   2.310       .  S
C10          O48   1.269       .  A
C10          O16   1.273       .  A
C10        C1543   1.471       .  S
O11          C18   1.277       .  A
H12          C25   1.081       .  S
C13          O27   1.234       .  S
C13          O28   1.268       .  A
C13          H38   1.081       .  S
O14          C37   1.269       .  A
O15         Mg29   2.171       .  S
O16         Mg46   2.281       .  S
C17          O30   1.272       .  A
C17          O22   1.275       .  A
C17        C1631   1.487       .  S
C18          O45   1.271       .  A
C18        C1615   1.480       .  S
Mg19         O26   2.133       .  S
Mg19         O27   2.159       .  S
Mg19         O20   2.280       .  S
Mg19         O21   2.300       .  S
Mg19         O48   2.249       .  S
O21          C25   1.270       .  A
O22         Mg29   2.306       .  S
O23          C42   1.274       .  A
O24          C44   1.276       .  A
O24         Mg40   2.299       .  S
O26         Mg40   2.168       .  S
O26          C37   1.235       .  S
O27         Mg46   2.147       .  S
O28         Mg40   2.295       .  S
Mg29         O45   2.252       .  S
O30         Mg46   2.269       .  S
H31          C36   1.081       .  S
O32         Mg40   2.158       .  S
O32          C35   1.235       .  S
H33          C35   1.081       .  S
H34          C37   1.081       .  S
O39         Mg46   2.298       .  S
C42          O47   1.274       .  A
C42        C1559   1.480   1_455  S
O43          C44   1.272       .  A
C44        C1575   1.483       .  S
C49        C1527   1.484       .  S
C49          C50   1.400       .  A
C49          C54   1.416       .  A
C50          H69   1.085       .  S
C50          C51   1.401       .  A
C51        C1623   1.485       .  S
C51          C52   1.416       .  A
C52          C53   1.421       .  A
C52          C59   1.407       .  A
C53          C54   1.422       .  A
C53          C58   1.422       .  A
C54          C55   1.407       .  A
C55          H65   1.083       .  S
C55          C56   1.396       .  A
C56          H66   1.083       .  S
C56          C57   1.405       .  A
C57          C58   1.422       .  A
C57          C64   1.415       .  A
C58          C61   1.423       .  A
C59          H67   1.082       .  S
C59          C60   1.394       .  A
C60          H68   1.083       .  S
C60          C61   1.404       .  A
C61          C62   1.414       .  A
C62        C1495   1.479       .  S
C62          C63   1.394       .  A
C63          H70   1.086       .  S
C63          C64   1.394       .  A
C64        C1519   1.478       .  S
C71        C1607   1.480       .  S
C71          C72   1.396       .  A
C71          C76   1.413       .  A
C72          H91   1.086       .  S
C72          C73   1.396       .  A
C73        C1487   1.485       .  S
C73          C74   1.418       .  A
C74          C75   1.422       .  A
C74          C81   1.405       .  A
C75          C76   1.421       .  A
C75          C80   1.422       .  A
C76          C77   1.404       .  A
C77          H87   1.083       .  S
C77          C78   1.393       .  A
C78          H88   1.082       .  S
C78          C79   1.407       .  A
C79          C80   1.421       .  A
C79          C86   1.415       .  A
C80          C83   1.421       .  A
C81          H89   1.082       .  S
C81          C82   1.396       .  A
C82          H90   1.083       .  S
C82          C83   1.406       .  A
C83          C84   1.416       .  A
C84        C1471   1.484       .  S
C84          C85   1.400       .  A
C85          H92   1.085       .  S
C85          C86   1.400       .  A
C86        C1447   1.482       .  S
O93         Mg95   2.154       .  S
O93        Mg101   2.155       .  S
O93         C128   1.235       .  S
C94         O107   1.235       .  S
C94         O131   1.270       .  A
C94         H133   1.081       .  S
Mg95        O124   2.157       .  S
Mg95        O139   2.318       .  S
Mg95        O135   2.262       .  S
Mg95        O106   2.299       .  S
O96        Mg138   2.157       .  S
O96        Mg121   2.154       .  S
O96         C117   1.236       .  S
O97         C128   1.269       .  A
O97        Mg121   2.297       .  S
C98         O100   1.275       .  A
C98         O112   1.273       .  A
C98        C1431   1.485       .  S
O99         C127   1.271       .  A
O99        Mg101   2.305       .  S
O100       Mg132   2.297       .  S
Mg101       O107   2.153       .  S
Mg101       O115   2.282       .  S
Mg101       O103   2.298       .  S
C102        O140   1.269       .  A
C102        O108   1.275       .  A
C102       C1383   1.476   1_455  S
O103        C110   1.275       .  A
H104        C117   1.081       .  S
C105        O119   1.235       .  S
C105        O120   1.271       .  A
C105        H130   1.081       .  S
O106        C129   1.270       .  A
O107       Mg121   2.170       .  S
O108       Mg138   2.320       .  S
C109        O122   1.273       .  A
C109        O114   1.277       .  A
C109       C1407   1.486       .  S
C110        O137   1.275       .  A
C110       C1423   1.485       .  S
Mg111       O118   2.146       .  S
Mg111       O119   2.145       .  S
Mg111       O112   2.286       .  S
Mg111       O113   2.304       .  S
Mg111       O140   2.253       .  S
O113        C117   1.271       .  A
O114       Mg121   2.315       .  S
O115        C134   1.273       .  A
O116        C136   1.279       .  A
O116       Mg132   2.329       .  S
O118       Mg132   2.161       .  S
O118        C129   1.235       .  S
O119       Mg138   2.154       .  S
O120       Mg132   2.307       .  S
Mg121       O137   2.286       .  S
O122       Mg138   2.264       .  S
H123        C128   1.081       .  S
O124       Mg132   2.162       .  S
O124        C127   1.236       .  S
H125        C127   1.081       .  S
H126        C129   1.081       .  S
O131       Mg138   2.298       .  S
C134        O139   1.277       .  A
C134       C1375   1.488   1_565  S
O135        C136   1.273       .  A
C136       C1535   1.490       .  S
O141       Mg143   2.142       .  S
O141       Mg149   2.155       .  S
O141        C176   1.236       .  S
C142        O155   1.237       .  S
C142        O179   1.271       .  A
C142        H181   1.081       .  S
Mg143       O172   2.151       .  S
Mg143       O187   2.320       .  S
Mg143       O183   2.276       .  S
Mg143       O154   2.303       .  S
O144       Mg186   2.145       .  S
O144       Mg169   2.142       .  S
O144        C165   1.236       .  S
O145        C176   1.269       .  A
O145       Mg169   2.296       .  S
C146        O148   1.272       .  A
C146        O160   1.277       .  A
C146       C1479   1.487       .  S
O147        C175   1.269       .  A
O147       Mg149   2.299       .  S
O148       Mg180   2.266       .  S
Mg149       O155   2.141       .  S
Mg149       O163   2.260       .  S
Mg149       O151   2.288       .  S
C150        O188   1.273       .  A
C150        O156   1.276       .  A
C150       C1295   1.473   1_565  S
O151        C158   1.273       .  A
H152        C165   1.081       .  S
C153        O167   1.235       .  S
C153        O168   1.268       .  A
C153        H178   1.081       .  S
O154        C177   1.272       .  A
O155       Mg169   2.159       .  S
O156       Mg186   2.306       .  S
C157        O170   1.272       .  A
C157        O162   1.274       .  A
C157       C1319   1.482       .  S
C158        O185   1.271       .  A
C158       C1335   1.479       .  S
Mg159       O166   2.145       .  S
Mg159       O167   2.154       .  S
Mg159       O160   2.319       .  S
Mg159       O161   2.303       .  S
Mg159       O188   2.266       .  S
O161        C165   1.270       .  A
O162       Mg169   2.296       .  S
O163        C182   1.271       .  A
O164        C184   1.273       .  A
O164       Mg180   2.277       .  S
O166       Mg180   2.156       .  S
O166        C177   1.237       .  S
O167       Mg186   2.141       .  S
O168       Mg180   2.290       .  S
Mg169       O185   2.260       .  S
O170       Mg186   2.267       .  S
H171        C176   1.081       .  S
O172       Mg180   2.144       .  S
O172        C175   1.235       .  S
H173        C175   1.081       .  S
H174        C177   1.081       .  S
O179       Mg186   2.302       .  S
C182        O187   1.278       .  A
C182       C1303   1.475       .  S
O183        C184   1.274       .  A
C184       C1351   1.481       .  S
C189       C1359   1.474       .  S
C189        C190   1.392       .  A
C189        C194   1.408       .  A
C190        H209   1.086       .  S
C190        C191   1.396       .  A
C191       C1439   1.479       .  S
C191        C192   1.419       .  A
C192        C193   1.421       .  A
C192        C199   1.406       .  A
C193        C194   1.421       .  A
C193        C198   1.420       .  A
C194        C195   1.403       .  A
C195        H205   1.083       .  S
C195        C196   1.389       .  A
C196        H206   1.083       .  S
C196        C197   1.405       .  A
C197        C198   1.420       .  A
C197        C204   1.407       .  A
C198        C201   1.424       .  A
C199        H207   1.083       .  S
C199        C200   1.400       .  A
C200        H208   1.082       .  S
C200        C201   1.408       .  A
C201        C202   1.423       .  A
C202       C1255   1.490       .  S
C202        C203   1.400       .  A
C203        H210   1.086       .  S
C203        C204   1.394       .  A
C204       C1271   1.475       .  S
O211       Mg213   2.163   1_554  S
O211       Mg219   2.167   1_545  S
O211        C246   1.236       .  S
C212        O225   1.233       .  S
C212        O249   1.266       .  A
C212        H251   1.081       .  S
Mg213       O242   2.166   1_545  S
Mg213       O257   2.293   1_545  S
Mg213       O253   2.263   1_545  S
Mg213       O224   2.292       .  S
O214       Mg256   2.165   1_545  S
O214       Mg239   2.141       .  S
O214        C235   1.237       .  S
O215        C246   1.271       .  A
O215       Mg239   2.309       .  S
C216        O218   1.276       .  A
C216        O230   1.274       .  A
C216       C1239   1.484       .  S
O217        C245   1.271   1_554  A
O217       Mg219   2.301       .  S
O218       Mg250   2.306       .  S
Mg219       O225   2.143       .  S
Mg219       O233   2.270       .  S
Mg219       O221   2.290   1_565  S
C220        O258   1.269       .  A
C220        O226   1.270   1_556  A
C220       C1191   1.465       .  S
O221        C228   1.275       .  A
H222        C235   1.081       .  S
C223        O237   1.235       .  S
C223        O238   1.269       .  A
C223        H248   1.081   1_556  S
O224        C247   1.267       .  A
O225       Mg239   2.162   1_565  S
O226       Mg256   2.265   1_545  S
C227        O240   1.272       .  A
C227        O232   1.281       .  A
C227       C1463   1.492       .  S
C228        O255   1.275       .  A
C228       C1511   1.484       .  S
Mg229       O236   2.135       .  S
Mg229       O237   2.169   1_545  S
Mg229       O230   2.283   1_545  S
Mg229       O231   2.292       .  S
Mg229       O258   2.255       .  S
O231        C235   1.270   1_556  A
O232       Mg239   2.341       .  S
O233        C252   1.271       .  A
O234        C254   1.279       .  A
O234       Mg250   2.327       .  S
O236       Mg250   2.157   1_545  S
O236        C247   1.233       .  S
O237       Mg256   2.148   1_556  S
O238       Mg250   2.300       .  S
Mg239       O255   2.286       .  S
O240       Mg256   2.255   1_545  S
H241        C246   1.081   1_556  S
O242       Mg250   2.164       .  S
O242        C245   1.237       .  S
H243        C245   1.081       .  S
H244        C247   1.081       .  S
O249       Mg256   2.288       .  S
C252        O257   1.273   1_554  A
C252       C1215   1.478       .  S
O253        C254   1.274       .  A
C254       C1231   1.490       .  S
O259       Mg261   2.149   1_556  S
O259       Mg267   2.154       .  S
O259        C294   1.234       .  S
C260        O273   1.237       .  S
C260        O297   1.271       .  A
C260        H299   1.081       .  S
Mg261       O290   2.156       .  S
Mg261       O305   2.316       .  S
Mg261       O301   2.257       .  S
Mg261       O272   2.298       .  S
O262       Mg304   2.147       .  S
O262       Mg287   2.146       .  S
O262        C283   1.235       .  S
O263        C294   1.268       .  A
O263       Mg287   2.292       .  S
C264        O266   1.276       .  A
C264        O278   1.271       .  A
C264       C1503   1.484       .  S
O265        C293   1.272   1_556  A
O265       Mg267   2.313       .  S
O266       Mg298   2.313       .  S
Mg267       O273   2.143       .  S
Mg267       O281   2.265       .  S
Mg267       O269   2.339       .  S
C268        O306   1.270       .  A
C268        O274   1.275   1_554  A
C268       C1135   1.473       .  S
O269        C276   1.278       .  A
H270        C283   1.081       .  S
C271        O285   1.235       .  S
C271        O286   1.269       .  A
C271        H296   1.081   1_554  S
O272        C295   1.270       .  A
O273       Mg287   2.156       .  S
O274       Mg304   2.320       .  S
C275        O288   1.270       .  A
C275        O280   1.272       .  A
C275       C1183   1.475       .  S
C276        O303   1.271       .  A
C276       C1159   1.490       .  S
Mg277       O284   2.137       .  S
Mg277       O285   2.144       .  S
Mg277       O278   2.262       .  S
Mg277       O279   2.298       .  S
Mg277       O306   2.260       .  S
O279        C283   1.270   1_554  A
O280       Mg287   2.283       .  S
O281        C300   1.273       .  A
O282        C302   1.275       .  A
O282       Mg298   2.299       .  S
O284       Mg298   2.161       .  S
O284        C295   1.236       .  S
O285       Mg304   2.133   1_554  S
O286       Mg298   2.298       .  S
Mg287       O303   2.251       .  S
O288       Mg304   2.240       .  S
H289        C294   1.081   1_554  S
O290       Mg298   2.170       .  S
O290        C293   1.236       .  S
H291        C293   1.081       .  S
H292        C295   1.081       .  S
O297       Mg304   2.303       .  S
C300        O305   1.277   1_556  A
C300       C1151   1.476       .  S
O301        C302   1.272       .  A
C302       C1279   1.481       .  S
O307       Mg309   2.155   1_456  S
O307       Mg315   2.144   1_455  S
O307        C342   1.235       .  S
C308        O321   1.236       .  S
C308        O345   1.270       .  A
C308        H347   1.081       .  S
Mg309       O338   2.166       .  S
Mg309       O353   2.335       .  S
Mg309       O349   2.252       .  S
Mg309       O320   2.295   1_655  S
O310       Mg352   2.162   1_455  S
O310       Mg335   2.178       .  S
O310        C331   1.237       .  S
O311        C342   1.270       .  A
O311       Mg335   2.306       .  S
C312        O314   1.277       .  A
C312        O326   1.275       .  A
C312       C1263   1.490       .  S
O313        C341   1.272   1_556  A
O313       Mg315   2.306       .  S
O314       Mg346   2.307       .  S
Mg315       O321   2.150       .  S
Mg315       O329   2.272       .  S
Mg315       O317   2.264   1_655  S
C316        O354   1.271       .  A
C316        O322   1.276   1_554  A
C316       C1079   1.481       .  S
O317        C324   1.271       .  A
H318        C331   1.081       .  S
C319        O333   1.235       .  S
C319        O334   1.269       .  A
C319        H344   1.081   1_554  S
O320        C343   1.269       .  A
O321       Mg335   2.176   1_655  S
O322       Mg352   2.319   1_455  S
C323        O336   1.273       .  A
C323        O328   1.282       .  A
C323       C1103   1.489       .  S
C324        O351   1.280       .  A
C324       C1111   1.492       .  S
Mg325       O332   2.142       .  S
Mg325       O333   2.151       .  S
Mg325       O326   2.297       .  S
Mg325       O327   2.310   1_655  S
Mg325       O354   2.268   1_655  S
O327        C331   1.273   1_554  A
O328       Mg335   2.348       .  S
O329        C348   1.270       .  A
O330        C350   1.279       .  A
O330       Mg346   2.321       .  S
O332       Mg346   2.169       .  S
O332        C343   1.235   1_655  S
O333       Mg352   2.155   1_554  S
O334       Mg346   2.298       .  S
Mg335       O351   2.354       .  S
O336       Mg352   2.252   1_455  S
H337        C342   1.081   1_554  S
O338       Mg346   2.166       .  S
O338        C341   1.237       .  S
H339        C341   1.081       .  S
H340        C343   1.081       .  S
O345       Mg352   2.296       .  S
C348        O353   1.277   1_556  A
C348       C1063   1.484       .  S
O349        C350   1.272       .  A
C350       C1455   1.483       .  S
O355       Mg357   2.162       .  S
O355       Mg363   2.152       .  S
O355        C390   1.236       .  S
C356        O369   1.233       .  S
C356        O393   1.266       .  A
C356        H395   1.081       .  S
Mg357       O386   2.150       .  S
Mg357       O401   2.299       .  S
Mg357       O397   2.261       .  S
Mg357       O368   2.300       .  S
O358       Mg400   2.155       .  S
O358       Mg383   2.132       .  S
O358        C379   1.236       .  S
O359        C390   1.271       .  A
O359       Mg383   2.307       .  S
C360        O362   1.272       .  A
C360        O374   1.271       .  A
C360       C1047   1.478       .  S
O361        C389   1.271       .  A
O361       Mg363   2.299       .  S
O362       Mg394   2.269       .  S
Mg363       O369   2.129       .  S
Mg363       O377   2.228       .  S
Mg363       O365   2.291       .  S
C364        O402   1.269       .  A
C364        O370   1.272       .  A
C364        C975   1.469       .  S
O365        C372   1.274       .  A
H366        C379   1.081       .  S
C367        O381   1.235       .  S
C367        O382   1.272       .  A
C367        H392   1.081       .  S
O368        C391   1.269       .  A
O369       Mg383   2.150       .  S
O370       Mg400   2.299       .  S
C371        O384   1.275       .  A
C371        O376   1.278       .  A
C371       C1015   1.491       .  S
C372        O399   1.272       .  A
C372        C999   1.479       .  S
Mg373       O380   2.155       .  S
Mg373       O381   2.147       .  S
Mg373       O374   2.273       .  S
Mg373       O375   2.299       .  S
Mg373       O402   2.249       .  S
O375        C379   1.271       .  A
O376       Mg383   2.321       .  S
O377        C396   1.268       .  A
O378        C398   1.279       .  A
O378       Mg394   2.340       .  S
O380       Mg394   2.161       .  S
O380        C391   1.234       .  S
O381       Mg400   2.171       .  S
O382       Mg394   2.314       .  S
Mg383       O399   2.266       .  S
O384       Mg400   2.275       .  S
H385        C390   1.081       .  S
O386       Mg394   2.133       .  S
O386        C389   1.237       .  S
H387        C389   1.081       .  S
H388        C391   1.081       .  S
O393       Mg400   2.287       .  S
C396        O401   1.272       .  A
C396        C983   1.469       .  S
O397        C398   1.272       .  A
C398       C1031   1.492       .  S
C403       C1119   1.496       .  S
C403        C404   1.400       .  A
C403        C408   1.426       .  A
C404        H423   1.085       .  S
C404        C405   1.393       .  A
C405       C1175   1.469       .  S
C405        C406   1.406       .  A
C406        C407   1.416       .  A
C406        C413   1.407       .  A
C407        C408   1.427       .  A
C407        C412   1.421       .  A
C408        C409   1.405       .  A
C409        H419   1.082       .  S
C409        C410   1.401       .  A
C410        H420   1.082       .  S
C410        C411   1.410       .  A
C411        C412   1.418       .  A
C411        C418   1.419       .  A
C412        C415   1.425       .  A
C413        H421   1.082       .  S
C413        C414   1.388       .  A
C414        H422   1.083       .  S
C414        C415   1.401       .  A
C415        C416   1.411       .  A
C416       C1023   1.485       .  S
C416        C417   1.395       .  A
C417        H424   1.085       .  S
C417        C418   1.402       .  A
C418        C959   1.481       .  S
C425       C1095   1.485       .  S
C425        C426   1.401       .  A
C425        C430   1.418       .  A
C426        H445   1.085       .  S
C426        C427   1.399       .  A
C427       C1223   1.484       .  S
C427        C428   1.414       .  A
C428        C429   1.422       .  A
C428        C435   1.406       .  A
C429        C430   1.422       .  A
C429        C434   1.422       .  A
C430        C431   1.408       .  A
C431        H441   1.082       .  S
C431        C432   1.398       .  A
C432        H442   1.083       .  S
C432        C433   1.404       .  A
C433        C434   1.424       .  A
C433        C440   1.417       .  A
C434        C437   1.422       .  A
C435        H443   1.082       .  S
C435        C436   1.394       .  A
C436        H444   1.083       .  S
C436        C437   1.404       .  A
C437        C438   1.412       .  A
C438       C1007   1.478       .  S
C438        C439   1.392       .  A
C439        H446   1.086       .  S
C439        C440   1.394       .  A
C440        C935   1.483       .  S
O447       Mg449   2.145       .  S
O447       Mg455   2.162       .  S
O447        C482   1.235       .  S
C448        O461   1.234       .  S
C448        O485   1.269       .  A
C448        H487   1.081       .  S
Mg449       O478   2.172       .  S
Mg449       O493   2.309       .  S
Mg449       O489   2.254       .  S
Mg449       O460   2.288       .  S
O450       Mg492   2.168       .  S
O450       Mg475   2.159       .  S
O450        C471   1.237       .  S
O451        C482   1.269       .  A
O451       Mg475   2.300       .  S
C452        O454   1.277       .  A
C452        O466   1.276       .  A
C452        C911   1.485       .  S
O453        C481   1.270       .  A
O453       Mg455   2.292       .  S
O454       Mg486   2.306       .  S
Mg455       O461   2.160       .  S
Mg455       O469   2.297       .  S
Mg455       O457   2.291       .  S
C456        O494   1.272       .  A
C456        O462   1.272       .  A
C456        C855   1.478   1_545  S
O457        C464   1.276       .  A
H458        C471   1.081       .  S
C459        O473   1.236       .  S
C459        O474   1.271       .  A
C459        H484   1.081       .  S
O460        C483   1.268       .  A
O461       Mg475   2.166       .  S
O462       Mg492   2.289       .  S
C463        O476   1.271       .  A
C463        O468   1.279       .  A
C463        C895   1.489       .  S
C464        O491   1.276       .  A
C464        C951   1.481       .  S
Mg465       O472   2.137       .  S
Mg465       O473   2.164       .  S
Mg465       O466   2.297       .  S
Mg465       O467   2.299       .  S
Mg465       O494   2.278       .  S
O467        C471   1.271       .  A
O468       Mg475   2.332       .  S
O469        C488   1.275       .  A
O470        C490   1.279       .  A
O470       Mg486   2.322       .  S
O472       Mg486   2.152       .  S
O472        C483   1.234       .  S
O473       Mg492   2.146       .  S
O474       Mg486   2.304       .  S
Mg475       O491   2.291       .  S
O476       Mg492   2.250       .  S
H477        C482   1.081       .  S
O478       Mg486   2.157       .  S
O478        C481   1.236       .  S
H479        C481   1.081       .  S
H480        C483   1.081       .  S
O485       Mg492   2.298       .  S
C488        O493   1.275       .  A
C488        C871   1.484   1_655  S
O489        C490   1.273       .  A
C490        C919   1.483       .  S
O495       Mg497   2.168       .  S
O495       Mg503   2.156       .  S
O495        C530   1.236       .  S
C496        O509   1.235       .  S
C496        O533   1.269       .  A
C496        H535   1.081       .  S
Mg497       O526   2.164       .  S
Mg497       O541   2.327       .  S
Mg497       O537   2.285       .  S
Mg497       O508   2.300       .  S
O498       Mg540   2.163       .  S
O498       Mg523   2.158       .  S
O498        C519   1.236       .  S
O499        C530   1.271       .  A
O499       Mg523   2.304       .  S
C500        O502   1.276       .  A
C500        O514   1.269       .  A
C500        C943   1.482       .  S
O501        C529   1.272       .  A
O501       Mg503   2.310       .  S
O502       Mg534   2.319       .  S
Mg503       O509   2.156       .  S
Mg503       O517   2.267       .  S
Mg503       O505   2.309       .  S
C504        O542   1.269       .  A
C504        O510   1.280       .  A
C504        C783   1.488   1_655  S
O505        C512   1.275       .  A
H506        C519   1.081       .  S
C507        O521   1.235       .  S
C507        O522   1.271       .  A
C507        H532   1.081       .  S
O508        C531   1.269       .  A
O509       Mg523   2.165       .  S
O510       Mg540   2.347       .  S
C511        O524   1.275       .  A
C511        O516   1.278       .  A
C511        C839   1.487       .  S
C512        O539   1.275       .  A
C512        C823   1.490       .  S
Mg513       O520   2.153       .  S
Mg513       O521   2.148       .  S
Mg513       O514   2.254       .  S
Mg513       O515   2.297       .  S
Mg513       O542   2.261       .  S
O515        C519   1.270       .  A
O516       Mg523   2.322       .  S
O517        C536   1.271       .  A
O518        C538   1.278       .  A
O518       Mg534   2.316       .  S
O520       Mg534   2.165       .  S
O520        C531   1.235       .  S
O521       Mg540   2.149       .  S
O522       Mg534   2.307       .  S
Mg523       O539   2.288       .  S
O524       Mg540   2.264       .  S
H525        C530   1.081       .  S
O526       Mg534   2.170       .  S
O526        C529   1.236       .  S
H527        C529   1.081       .  S
H528        C531   1.081       .  S
O533       Mg540   2.301       .  S
C536        O541   1.278       .  A
C536        C799   1.482       .  S
O537        C538   1.275       .  A
C538        C807   1.491       .  S
C543       C1247   1.486       .  S
C543        C544   1.397       .  A
C543        C548   1.417       .  A
C544        H563   1.086       .  S
C544        C545   1.397       .  A
C545       C1167   1.485       .  S
C545        C546   1.417       .  A
C546        C547   1.423       .  A
C546        C553   1.405       .  A
C547        C548   1.423       .  A
C547        C552   1.424       .  A
C548        C549   1.405       .  A
C549        H559   1.082       .  S
C549        C550   1.394       .  A
C550        H560   1.082       .  S
C550        C551   1.406       .  A
C551        C552   1.421       .  A
C551        C558   1.417       .  A
C552        C555   1.421       .  A
C553        H561   1.083       .  S
C553        C554   1.397       .  A
C554        H562   1.083       .  S
C554        C555   1.407       .  A
C555        C556   1.418       .  A
C556        C815   1.486       .  S
C556        C557   1.401       .  A
C557        H564   1.085       .  S
C557        C558   1.401       .  A
C558        C887   1.486       .  S
C565       C1583   1.479       .  S
C565        C566   1.397       .  A
C565        C570   1.414   1_455  A
C566        H585   1.086       .  S
C566        C567   1.397       .  A
C567       C1399   1.482       .  S
C567        C568   1.415   1_455  A
C568        C569   1.422       .  A
C568        C575   1.405       .  A
C569        C570   1.420       .  A
C569        C574   1.421       .  A
C570        C571   1.405       .  A
C571        H581   1.082   1_655  S
C571        C572   1.394       .  A
C572        H582   1.081       .  S
C572        C573   1.406       .  A
C573        C574   1.422       .  A
C573        C580   1.418       .  A
C574        C577   1.420       .  A
C575        H583   1.082       .  S
C575        C576   1.393       .  A
C576        H584   1.083       .  S
C576        C577   1.406       .  A
C577        C578   1.413       .  A
C578        C847   1.481       .  S
C578        C579   1.397       .  A
C579        H586   1.085       .  S
C579        C580   1.401       .  A
C580        C927   1.487       .  S
C587       C1599   1.489       .  S
C587        C588   1.395       .  A
C587        C592   1.419       .  A
C588        H607   1.086       .  S
C588        C589   1.397       .  A
C589       C1343   1.479       .  S
C589        C590   1.415       .  A
C590        C591   1.418       .  A
C590        C597   1.407       .  A
C591        C592   1.426       .  A
C591        C596   1.422       .  A
C592        C593   1.405       .  A
C593        H603   1.082       .  S
C593        C594   1.394       .  A
C594        H604   1.083       .  S
C594        C595   1.406       .  A
C595        C596   1.418       .  A
C595        C602   1.410       .  A
C596        C599   1.427       .  A
C597        H605   1.082       .  S
C597        C598   1.396       .  A
C598        H606   1.082       .  S
C598        C599   1.404       .  A
C599        C600   1.422       .  A
C600        C831   1.493       .  S
C600        C601   1.397       .  A
C601        H608   1.086       .  S
C601        C602   1.394       .  A
C602       C1055   1.472       .  S
C609       C1327   1.479       .  S
C609        C610   1.398       .  A
C609        C614   1.415       .  A
C610        H629   1.086       .  S
C610        C611   1.396       .  A
C611       C1415   1.484       .  S
C611        C612   1.417       .  A
C612        C613   1.423       .  A
C612        C619   1.405       .  A
C613        C614   1.420       .  A
C613        C618   1.424   1_565  A
C614        C615   1.405   1_565  A
C615        H625   1.083       .  S
C615        C616   1.396       .  A
C616        H626   1.081       .  S
C616        C617   1.408       .  A
C617        C618   1.425       .  A
C617        C624   1.423       .  A
C618        C621   1.421       .  A
C619        H627   1.082       .  S
C619        C620   1.394   1_565  A
C620        H628   1.083       .  S
C620        C621   1.405       .  A
C621        C622   1.413       .  A
C622       C1039   1.483       .  S
C622        C623   1.397       .  A
C623        H630   1.085       .  S
C623        C624   1.402       .  A
C624        C903   1.495       .  S
O631       Mg633   2.145   1_655  S
O631       Mg639   2.147   1_554  S
O631        C666   1.237       .  S
C632        O645   1.237       .  S
C632        O669   1.272       .  A
C632        H671   1.082       .  S
Mg633       O662   2.151   1_554  S
Mg633       O677   2.340   1_554  S
Mg633       O673   2.271       .  S
Mg633       O644   2.303       .  S
O634       Mg676   2.135   1_554  S
O634       Mg659   2.133       .  S
O634        C655   1.234       .  S
O635        C666   1.272       .  A
O635       Mg659   2.303   1_545  S
C636        O638   1.274       .  A
C636        O650   1.271   1_546  A
C636       C1207   1.479       .  S
O637        C665   1.269   1_655  A
O637       Mg639   2.299       .  S
O638       Mg670   2.290       .  S
Mg639       O645   2.162   1_545  S
Mg639       O653   2.282       .  S
Mg639       O641   2.259       .  S
C640        O678   1.272       .  A
C640        O646   1.276   1_455  A
C640       C1087   1.474       .  S
O641        C648   1.270   1_546  A
H642        C655   1.081       .  S
C643        O657   1.237       .  S
C643        O658   1.271       .  A
C643        H668   1.081       .  S
O644        C667   1.270       .  A
O645       Mg659   2.165   1_556  S
O646       Mg676   2.322   1_554  S
C647        O660   1.272       .  A
C647        O652   1.277       .  A
C647       C1143   1.475       .  S
C648        O675   1.271       .  A
C648       C1199   1.470       .  S
Mg649       O656   2.153   1_565  S
Mg649       O657   2.155   1_554  S
Mg649       O650   2.272       .  S
Mg649       O651   2.295   1_455  S
Mg649       O678   2.269       .  S
O651        C655   1.268       .  A
O652       Mg659   2.326   1_556  S
O653        C672   1.272       .  A
O654        C674   1.278       .  A
O654       Mg670   2.315   1_554  S
O656       Mg670   2.165   1_554  S
O656        C667   1.236       .  S
O657       Mg676   2.142   1_455  S
O658       Mg670   2.298   1_565  S
Mg659       O675   2.259       .  S
O660       Mg676   2.263       .  S
H661        C666   1.081       .  S
O662       Mg670   2.153       .  S
O662        C665   1.235       .  S
H663        C665   1.081       .  S
H664        C667   1.081       .  S
O669       Mg676   2.311       .  S
C672        O677   1.279   1_655  A
C672       C1071   1.487       .  S
O673        C674   1.274       .  A
C674       C1127   1.479       .  S
O679       Mg681   2.154       .  S
O679       Mg687   2.175       .  S
O679        C714   1.235       .  S
C680        O693   1.236       .  S
C680        O717   1.270       .  A
C680        H719   1.081       .  S
Mg681       O710   2.156       .  S
Mg681       O725   2.309       .  S
Mg681       O721   2.303       .  S
Mg681       O692   2.293       .  S
O682       Mg724   2.156       .  S
O682       Mg707   2.122       .  S
O682        C703   1.234       .  S
O683        C714   1.269       .  A
O683       Mg707   2.292       .  S
C684        O686   1.269       .  A
C684        O698   1.275       .  A
C684       C1551   1.466       .  S
O685        C713   1.267       .  A
O685       Mg687   2.290       .  S
O686       Mg718   2.228       .  S
Mg687       O693   2.151       .  S
Mg687       O701   2.266       .  S
Mg687       O689   2.319       .  S
C688        O726   1.276       .  A
C688        O694   1.275       .  A
C688       C1311   1.483       .  S
O689        C696   1.277       .  A
H690        C703   1.081       .  S
C691        O705   1.236       .  S
C691        O706   1.268       .  A
C691        H716   1.081       .  S
O692        C715   1.269       .  A
O693       Mg707   2.168       .  S
O694       Mg724   2.290       .  S
C695        O708   1.273       .  A
C695        O700   1.272       .  A
C695       C1391   1.479       .  S
C696        O723   1.268       .  A
C696       C1567   1.474       .  S
Mg697       O704   2.155       .  S
Mg697       O705   2.167       .  S
Mg697       O698   2.296       .  S
Mg697       O699   2.288       .  S
Mg697       O726   2.287       .  S
O699        C703   1.267       .  A
O700       Mg707   2.280       .  S
O701        C720   1.275       .  A
O702        C722   1.274       .  A
O702       Mg718   2.299       .  S
O704       Mg718   2.170       .  S
O704        C715   1.235       .  S
O705       Mg724   2.130       .  S
O706       Mg718   2.286       .  S
Mg707       O723   2.228       .  S
O708       Mg724   2.279       .  S
H709        C714   1.081       .  S
O710       Mg718   2.127       .  S
O710        C713   1.233       .  S
H711        C713   1.081       .  S
H712        C715   1.081       .  S
O717       Mg724   2.297       .  S
C720        O725   1.278       .  A
C720       C1287   1.481       .  S
O721        C722   1.277       .  A
C722       C1367   1.484       .  S
O727       Mg729   2.147       .  S
O727       Mg735   2.167       .  S
O727        C762   1.236       .  S
C728        O741   1.236       .  S
C728        O765   1.271       .  A
C728        H767   1.081       .  S
Mg729       O758   2.146       .  S
Mg729       O773   2.275       .  S
Mg729       O769   2.267       .  S
Mg729       O740   2.299       .  S
O730       Mg772   2.145       .  S
O730       Mg755   2.143       .  S
O730        C751   1.235       .  S
O731        C762   1.270       .  A
O731       Mg755   2.298       .  S
C732        O734   1.272       .  A
C732        O746   1.276       .  A
C732        C967   1.477       .  S
O733        C761   1.269       .  A
O733       Mg735   2.295       .  S
O734       Mg766   2.252       .  S
Mg735       O741   2.172       .  S
Mg735       O749   2.330       .  S
Mg735       O737   2.293       .  S
C736        O774   1.276       .  A
C736        O742   1.273       .  A
C736        C791   1.489       .  S
O737        C744   1.276       .  A
H738        C751   1.081       .  S
C739        O753   1.236       .  S
C739        O754   1.270       .  A
C739        H764   1.081       .  S
O740        C763   1.270       .  A
O741       Mg755   2.170       .  S
O742       Mg772   2.287       .  S
C743        O756   1.269       .  A
C743        O748   1.277       .  A
C743        C863   1.475       .  S
C744        O771   1.271       .  A
C744        C991   1.470       .  S
Mg745       O752   2.158       .  S
Mg745       O753   2.168       .  S
Mg745       O746   2.302       .  S
Mg745       O747   2.297       .  S
Mg745       O774   2.298       .  S
O747        C751   1.269       .  A
O748       Mg755   2.334       .  S
O749        C768   1.279       .  A
O750        C770   1.278       .  A
O750       Mg766   2.335       .  S
O752       Mg766   2.163       .  S
O752        C763   1.235       .  S
O753       Mg772   2.143       .  S
O754       Mg766   2.299       .  S
Mg755       O771   2.252       .  S
O756       Mg772   2.256       .  S
H757        C762   1.081       .  S
O758       Mg766   2.142       .  S
O758        C761   1.235       .  S
H759        C761   1.081       .  S
H760        C763   1.082       .  S
O765       Mg772   2.307       .  S
C768        O773   1.272       .  A
C768        C775   1.494       .  S
O769        C770   1.271       .  A
C770        C879   1.482       .  S
C775        C776   1.405       .  A
C775        C780   1.414       .  A
C776        H785   1.083       .  S
C776        C777   1.406       .  A
C777        H786   1.083       .  S
C777        C778   1.408       .  A
C778        C784   1.411       .  A
C778        C779   1.410       .  A
C779        C781   1.406       .  A
C779        C780   1.406       .  A
C780        H787   1.084       .  S
C781        H788   1.083       .  S
C781        C782   1.401       .  A
C782        H789   1.083   1_455  S
C782        C783   1.403       .  A
C783        C784   1.414       .  A
C784        H790   1.084       .  S
C791        C792   1.406       .  A
C791        C796   1.411       .  A
C792        H801   1.083       .  S
C792        C793   1.402       .  A
C793        H802   1.084       .  S
C793        C794   1.405       .  A
C794        C800   1.407       .  A
C794        C795   1.412       .  A
C795        C797   1.404       .  A
C795        C796   1.405       .  A
C796        H803   1.084       .  S
C797        H804   1.084       .  S
C797        C798   1.399       .  A
C798        H805   1.083       .  S
C798        C799   1.404       .  A
C799        C800   1.410       .  A
C800        H806   1.085       .  S
C807        C808   1.409       .  A
C807        C812   1.409       .  A
C808        H817   1.083       .  S
C808        C809   1.400       .  A
C809        H818   1.084       .  S
C809        C810   1.402       .  A
C810        C816   1.409       .  A
C810        C811   1.415       .  A
C811        C813   1.404       .  A
C811        C812   1.409       .  A
C812        H819   1.084       .  S
C813        H820   1.083       .  S
C813        C814   1.399       .  A
C814        H821   1.083       .  S
C814        C815   1.403       .  A
C815        C816   1.405       .  A
C816        H822   1.084       .  S
C823        C824   1.406       .  A
C823        C828   1.412       .  A
C824        H833   1.083       .  S
C824        C825   1.400       .  A
C825        H834   1.084       .  S
C825        C826   1.403       .  A
C826        C832   1.406       .  A
C826        C827   1.412       .  A
C827        C829   1.405       .  A
C827        C828   1.409       .  A
C828        H835   1.084       .  S
C829        H836   1.083       .  S
C829        C830   1.402       .  A
C830        H837   1.083       .  S
C830        C831   1.405       .  A
C831        C832   1.410       .  A
C832        H838   1.084       .  S
C839        C840   1.407       .  A
C839        C844   1.410       .  A
C840        H849   1.083       .  S
C840        C841   1.396       .  A
C841        H850   1.084       .  S
C841        C842   1.400       .  A
C842        C848   1.403       .  A
C842        C843   1.414       .  A
C843        C845   1.405       .  A
C843        C844   1.408       .  A
C844        H851   1.084       .  S
C845        H852   1.083       .  S
C845        C846   1.400       .  A
C846        H853   1.083       .  S
C846        C847   1.403       .  A
C847        C848   1.402       .  A
C848        H854   1.085       .  S
C855        C856   1.403       .  A
C855        C860   1.407       .  A
C856        H865   1.083       .  S
C856        C857   1.400       .  A
C857        H866   1.084       .  S
C857        C858   1.405       .  A
C858        C864   1.405       .  A
C858        C859   1.413       .  A
C859        C861   1.405       .  A
C859        C860   1.405       .  A
C860        H867   1.084       .  S
C861        H868   1.084       .  S
C861        C862   1.400       .  A
C862        H869   1.083       .  S
C862        C863   1.402       .  A
C863        C864   1.407       .  A
C864        H870   1.085       .  S
C871        C872   1.404       .  A
C871        C876   1.410       .  A
C872        H881   1.083   1_455  S
C872        C873   1.401       .  A
C873        H882   1.084       .  S
C873        C874   1.405       .  A
C874        C880   1.408       .  A
C874        C875   1.413       .  A
C875        C877   1.406       .  A
C875        C876   1.409       .  A
C876        H883   1.084       .  S
C877        H884   1.084       .  S
C877        C878   1.402       .  A
C878        H885   1.083       .  S
C878        C879   1.403       .  A
C879        C880   1.409       .  A
C880        H886   1.085       .  S
C887        C888   1.403       .  A
C887        C892   1.405       .  A
C888        H897   1.083       .  S
C888        C889   1.400       .  A
C889        H898   1.083       .  S
C889        C890   1.404       .  A
C890        C896   1.408   1_565  A
C890        C891   1.414       .  A
C891        C893   1.403   1_565  A
C891        C892   1.408       .  A
C892        H899   1.084       .  S
C893        H900   1.083       .  S
C893        C894   1.400       .  A
C894        H901   1.083       .  S
C894        C895   1.407       .  A
C895        C896   1.411       .  A
C896        H902   1.084       .  S
C903        C904   1.406       .  A
C903        C908   1.408       .  A
C904        H913   1.083       .  S
C904        C905   1.403       .  A
C905        H914   1.083       .  S
C905        C906   1.405       .  A
C906        C912   1.411       .  A
C906        C907   1.413       .  A
C907        C909   1.401       .  A
C907        C908   1.405       .  A
C908        H915   1.084       .  S
C909        H916   1.083       .  S
C909        C910   1.396       .  A
C910        H917   1.084       .  S
C910        C911   1.407       .  A
C911        C912   1.409       .  A
C912        H918   1.084       .  S
C919        C920   1.407       .  A
C919        C924   1.407       .  A
C920        H929   1.083       .  S
C920        C921   1.399       .  A
C921        H930   1.084       .  S
C921        C922   1.402       .  A
C922        C928   1.407       .  A
C922        C923   1.415       .  A
C923        C925   1.401       .  A
C923        C924   1.404       .  A
C924        H931   1.084       .  S
C925        H932   1.084       .  S
C925        C926   1.396       .  A
C926        H933   1.083       .  S
C926        C927   1.404       .  A
C927        C928   1.406       .  A
C928        H934   1.084       .  S
C935        C936   1.404       .  A
C935        C940   1.403       .  A
C936        H945   1.083       .  S
C936        C937   1.404       .  A
C937        H946   1.083   1_455  S
C937        C938   1.407       .  A
C938        C944   1.413   1_455  A
C938        C939   1.414       .  A
C939        C941   1.398       .  A
C939        C940   1.400       .  A
C940        H947   1.085       .  S
C941        H948   1.083       .  S
C941        C942   1.392       .  A
C942        H949   1.084       .  S
C942        C943   1.407   1_455  A
C943        C944   1.409       .  A
C944        H950   1.083       .  S
C951        C952   1.406   1_655  A
C951        C956   1.409       .  A
C952        H961   1.083       .  S
C952        C953   1.393       .  A
C953        H962   1.083       .  S
C953        C954   1.399       .  A
C954        C960   1.400       .  A
C954        C955   1.414       .  A
C955        C957   1.406       .  A
C955        C956   1.409   1_455  A
C956        H963   1.083       .  S
C957        H964   1.083   1_455  S
C957        C958   1.402       .  A
C958        H965   1.083       .  S
C958        C959   1.403       .  A
C959        C960   1.402       .  A
C960        H966   1.084       .  S
C967        C968   1.406       .  A
C967        C972   1.407       .  A
C968        H977   1.083       .  S
C968        C969   1.395       .  A
C969        H978   1.084       .  S
C969        C970   1.401       .  A
C970        C976   1.400       .  A
C970        C971   1.413       .  A
C971        C973   1.405       .  A
C971        C972   1.403       .  A
C972        H979   1.084       .  S
C973        H980   1.083       .  S
C973        C974   1.399       .  A
C974        H981   1.083       .  S
C974        C975   1.402       .  A
C975        C976   1.404       .  A
C976        H982   1.085       .  S
C983        C984   1.404   1_545  A
C983        C988   1.401   1_545  A
C984        H993   1.083   1_565  S
C984        C985   1.401       .  A
C985        H994   1.083       .  S
C985        C986   1.405       .  A
C986        C992   1.404       .  A
C986        C987   1.414       .  A
C987        C989   1.399       .  A
C987        C988   1.394       .  A
C988        H995   1.085       .  S
C989        H996   1.084       .  S
C989        C990   1.390       .  A
C990        H997   1.083       .  S
C990        C991   1.403       .  A
C991        C992   1.406       .  A
C992        H998   1.084       .  S
C999       C1000   1.406   1_545  A
C999       C1004   1.408       .  A
C1000      H1009   1.083       .  S
C1000      C1001   1.395       .  A
C1001      H1010   1.083       .  S
C1001      C1002   1.401       .  A
C1002      C1008   1.400       .  A
C1002      C1003   1.414       .  A
C1003      C1005   1.405       .  A
C1003      C1004   1.405   1_565  A
C1004      H1011   1.084       .  S
C1005      H1012   1.083   1_565  S
C1005      C1006   1.400       .  A
C1006      H1013   1.083       .  S
C1006      C1007   1.402       .  A
C1007      C1008   1.403       .  A
C1008      H1014   1.085       .  S
C1015      C1016   1.409       .  A
C1015      C1020   1.409       .  A
C1016      H1025   1.083       .  S
C1016      C1017   1.401       .  A
C1017      H1026   1.084       .  S
C1017      C1018   1.403       .  A
C1018      C1024   1.410       .  A
C1018      C1019   1.414       .  A
C1019      C1021   1.403       .  A
C1019      C1020   1.406       .  A
C1020      H1027   1.084       .  S
C1021      H1028   1.084       .  S
C1021      C1022   1.398       .  A
C1022      H1029   1.083       .  S
C1022      C1023   1.402       .  A
C1023      C1024   1.406       .  A
C1024      H1030   1.084       .  S
C1031      C1032   1.408       .  A
C1031      C1036   1.410       .  A
C1032      H1041   1.083       .  S
C1032      C1033   1.402       .  A
C1033      H1042   1.084       .  S
C1033      C1034   1.404       .  A
C1034      C1040   1.409       .  A
C1034      C1035   1.414       .  A
C1035      C1037   1.403       .  A
C1035      C1036   1.406       .  A
C1036      H1043   1.084       .  S
C1037      H1044   1.084   1_545  S
C1037      C1038   1.398       .  A
C1038      H1045   1.083   1_545  S
C1038      C1039   1.402       .  A
C1039      C1040   1.406       .  A
C1040      H1046   1.084       .  S
C1047      C1048   1.408       .  A
C1047      C1052   1.406       .  A
C1048      H1057   1.083       .  S
C1048      C1049   1.393       .  A
C1049      H1058   1.083       .  S
C1049      C1050   1.399       .  A
C1050      C1056   1.399       .  A
C1050      C1051   1.415       .  A
C1051      C1053   1.404       .  A
C1051      C1052   1.404       .  A
C1052      H1059   1.084       .  S
C1053      H1060   1.083       .  S
C1053      C1054   1.398       .  A
C1054      H1061   1.083       .  S
C1054      C1055   1.401       .  A
C1055      C1056   1.400       .  A
C1056      H1062   1.085       .  S
C1063      C1064   1.404       .  A
C1063      C1068   1.409       .  A
C1064      H1073   1.083   1_556  S
C1064      C1065   1.404       .  A
C1065      H1074   1.084   1_556  S
C1065      C1066   1.407       .  A
C1066      C1072   1.411       .  A
C1066      C1067   1.413       .  A
C1067      C1069   1.405   1_655  A
C1067      C1068   1.409       .  A
C1068      H1075   1.085   1_655  S
C1069      H1076   1.084       .  S
C1069      C1070   1.402       .  A
C1070      H1077   1.083       .  S
C1070      C1071   1.404   1_455  A
C1071      C1072   1.411       .  A
C1072      H1078   1.084       .  S
C1079      C1080   1.404       .  A
C1079      C1084   1.409       .  A
C1080      H1089   1.083   1_554  S
C1080      C1081   1.398       .  A
C1081      H1090   1.084   1_554  S
C1081      C1082   1.403       .  A
C1082      C1088   1.404       .  A
C1082      C1083   1.414       .  A
C1083      C1085   1.406   1_455  A
C1083      C1084   1.407       .  A
C1084      H1091   1.084   1_455  S
C1085      H1092   1.084       .  S
C1085      C1086   1.402       .  A
C1086      H1093   1.083       .  S
C1086      C1087   1.403   1_655  A
C1087      C1088   1.404       .  A
C1088      H1094   1.085       .  S
C1095      C1096   1.403       .  A
C1095      C1100   1.405       .  A
C1096      H1105   1.083       .  S
C1096      C1097   1.399       .  A
C1097      H1106   1.083       .  S
C1097      C1098   1.403       .  A
C1098      C1104   1.409       .  A
C1098      C1099   1.416       .  A
C1099      C1101   1.401       .  A
C1099      C1100   1.409       .  A
C1100      H1107   1.084       .  S
C1101      H1108   1.084       .  S
C1101      C1102   1.399       .  A
C1102      H1109   1.083   1_455  S
C1102      C1103   1.409       .  A
C1103      C1104   1.408       .  A
C1104      H1110   1.084       .  S
C1111      C1112   1.409       .  A
C1111      C1116   1.413       .  A
C1112      H1121   1.084       .  S
C1112      C1113   1.392       .  A
C1113      H1122   1.084       .  S
C1113      C1114   1.398       .  A
C1114      C1120   1.404       .  A
C1114      C1115   1.415       .  A
C1115      C1117   1.408       .  A
C1115      C1116   1.420       .  A
C1116      H1123   1.083       .  S
C1117      H1124   1.083       .  S
C1117      C1118   1.409       .  A
C1118      H1125   1.083       .  S
C1118      C1119   1.406       .  A
C1119      C1120   1.406       .  A
C1120      H1126   1.085       .  S
C1127      C1128   1.404       .  A
C1127      C1132   1.408       .  A
C1128      H1137   1.083       .  S
C1128      C1129   1.397       .  A
C1129      H1138   1.084       .  S
C1129      C1130   1.402       .  A
C1130      C1136   1.404       .  A
C1130      C1131   1.414       .  A
C1131      C1133   1.405       .  A
C1131      C1132   1.406       .  A
C1132      H1139   1.084   1_554  S
C1133      H1140   1.083   1_554  S
C1133      C1134   1.401       .  A
C1134      H1141   1.083   1_554  S
C1134      C1135   1.402       .  A
C1135      C1136   1.404       .  A
C1136      H1142   1.085       .  S
C1143      C1144   1.403       .  A
C1143      C1148   1.405       .  A
C1144      H1153   1.083       .  S
C1144      C1145   1.399       .  A
C1145      H1154   1.084       .  S
C1145      C1146   1.404       .  A
C1146      C1152   1.405       .  A
C1146      C1147   1.414       .  A
C1147      C1149   1.403   1_556  A
C1147      C1148   1.404       .  A
C1148      H1155   1.085   1_556  S
C1149      H1156   1.084       .  S
C1149      C1150   1.398       .  A
C1150      H1157   1.083       .  S
C1150      C1151   1.404   1_554  A
C1151      C1152   1.406       .  A
C1152      H1158   1.085       .  S
C1159      C1160   1.408       .  A
C1159      C1164   1.411       .  A
C1160      H1169   1.083       .  S
C1160      C1161   1.396       .  A
C1161      H1170   1.084       .  S
C1161      C1162   1.400       .  A
C1162      C1168   1.405       .  A
C1162      C1163   1.414       .  A
C1163      C1165   1.405       .  A
C1163      C1164   1.411       .  A
C1164      H1171   1.084       .  S
C1165      H1172   1.084       .  S
C1165      C1166   1.402       .  A
C1166      H1173   1.083       .  S
C1166      C1167   1.404       .  A
C1167      C1168   1.404       .  A
C1168      H1174   1.085       .  S
C1175      C1176   1.401       .  A
C1175      C1180   1.400       .  A
C1176      H1185   1.083       .  S
C1176      C1177   1.392       .  A
C1177      H1186   1.084       .  S
C1177      C1178   1.400       .  A
C1178      C1184   1.397       .  A
C1178      C1179   1.415       .  A
C1179      C1181   1.401       .  A
C1179      C1180   1.401       .  A
C1180      H1187   1.085       .  S
C1181      H1188   1.084       .  S
C1181      C1182   1.396       .  A
C1182      H1189   1.083       .  S
C1182      C1183   1.407       .  A
C1183      C1184   1.404       .  A
C1184      H1190   1.085       .  S
C1191      C1192   1.401       .  A
C1191      C1196   1.404   1_556  A
C1192      H1201   1.083       .  S
C1192      C1193   1.396       .  A
C1193      H1202   1.084       .  S
C1193      C1194   1.403       .  A
C1194      C1200   1.397       .  A
C1194      C1195   1.413   1_546  A
C1195      C1197   1.403       .  A
C1195      C1196   1.398   1_565  A
C1196      H1203   1.085   1_545  S
C1197      H1204   1.084       .  S
C1197      C1198   1.396       .  A
C1198      H1205   1.083       .  S
C1198      C1199   1.403       .  A
C1199      C1200   1.406   1_564  A
C1200      H1206   1.085       .  S
C1207      C1208   1.403       .  A
C1207      C1212   1.408   1_546  A
C1208      H1217   1.083       .  S
C1208      C1209   1.400       .  A
C1209      H1218   1.083       .  S
C1209      C1210   1.405       .  A
C1210      C1216   1.405   1_545  A
C1210      C1211   1.412   1_546  A
C1211      C1213   1.404       .  A
C1211      C1212   1.403       .  A
C1212      H1219   1.084       .  S
C1213      H1220   1.084       .  S
C1213      C1214   1.399       .  A
C1214      H1221   1.083       .  S
C1214      C1215   1.403       .  A
C1215      C1216   1.408   1_554  A
C1216      H1222   1.084   1_565  S
C1223      C1224   1.402       .  A
C1223      C1228   1.406       .  A
C1224      H1233   1.083       .  S
C1224      C1225   1.397       .  A
C1225      H1234   1.084       .  S
C1225      C1226   1.403       .  A
C1226      C1232   1.405       .  A
C1226      C1227   1.414       .  A
C1227      C1229   1.404       .  A
C1227      C1228   1.410       .  A
C1228      H1235   1.084       .  S
C1229      H1236   1.083       .  S
C1229      C1230   1.402       .  A
C1230      H1237   1.083       .  S
C1230      C1231   1.408       .  A
C1231      C1232   1.409       .  A
C1232      H1238   1.084       .  S
C1239      C1240   1.407       .  A
C1239      C1244   1.409       .  A
C1240      H1249   1.084       .  S
C1240      C1241   1.394       .  A
C1241      H1250   1.083       .  S
C1241      C1242   1.399       .  A
C1242      C1248   1.401       .  A
C1242      C1243   1.414       .  A
C1243      C1245   1.406       .  A
C1243      C1244   1.411       .  A
C1244      H1251   1.083       .  S
C1245      H1252   1.083       .  S
C1245      C1246   1.403       .  A
C1246      H1253   1.083       .  S
C1246      C1247   1.404       .  A
C1247      C1248   1.404       .  A
C1248      H1254   1.084       .  S
C1255      C1256   1.403       .  A
C1255      C1260   1.410       .  A
C1256      H1265   1.083       .  S
C1256      C1257   1.400       .  A
C1257      H1266   1.083       .  S
C1257      C1258   1.405       .  A
C1258      C1264   1.406       .  A
C1258      C1259   1.412       .  A
C1259      C1261   1.405       .  A
C1259      C1260   1.407       .  A
C1260      H1267   1.084       .  S
C1261      H1268   1.084       .  S
C1261      C1262   1.402       .  A
C1262      H1269   1.083       .  S
C1262      C1263   1.405       .  A
C1263      C1264   1.411       .  A
C1264      H1270   1.084       .  S
C1271      C1272   1.402       .  A
C1271      C1276   1.400       .  A
C1272      H1281   1.083       .  S
C1272      C1273   1.397       .  A
C1273      H1282   1.084       .  S
C1273      C1274   1.403       .  A
C1274      C1280   1.403       .  A
C1274      C1275   1.415       .  A
C1275      C1277   1.400       .  A
C1275      C1276   1.402       .  A
C1276      H1283   1.085       .  S
C1277      H1284   1.084       .  S
C1277      C1278   1.396       .  A
C1278      H1285   1.083       .  S
C1278      C1279   1.407       .  A
C1279      C1280   1.408       .  A
C1280      H1286   1.084       .  S
C1287      C1288   1.406       .  A
C1287      C1292   1.407       .  A
C1288      H1297   1.083       .  S
C1288      C1289   1.398       .  A
C1289      H1298   1.084       .  S
C1289      C1290   1.402       .  A
C1290      C1296   1.404       .  A
C1290      C1291   1.414       .  A
C1291      C1293   1.403       .  A
C1291      C1292   1.403       .  A
C1292      H1299   1.084       .  S
C1293      H1300   1.084       .  S
C1293      C1294   1.397       .  A
C1294      H1301   1.083   1_545  S
C1294      C1295   1.404       .  A
C1295      C1296   1.405       .  A
C1296      H1302   1.085       .  S
C1303      C1304   1.402       .  A
C1303      C1308   1.408       .  A
C1304      H1313   1.083       .  S
C1304      C1305   1.396       .  A
C1305      H1314   1.083       .  S
C1305      C1306   1.403       .  A
C1306      C1312   1.401       .  A
C1306      C1307   1.413       .  A
C1307      C1309   1.405       .  A
C1307      C1308   1.406       .  A
C1308      H1315   1.084       .  S
C1309      H1316   1.083       .  S
C1309      C1310   1.401       .  A
C1310      H1317   1.083       .  S
C1310      C1311   1.406       .  A
C1311      C1312   1.408       .  A
C1312      H1318   1.084       .  S
C1319      C1320   1.408       .  A
C1319      C1324   1.406       .  A
C1320      H1329   1.083       .  S
C1320      C1321   1.398       .  A
C1321      H1330   1.084       .  S
C1321      C1322   1.401       .  A
C1322      C1328   1.406       .  A
C1322      C1323   1.416       .  A
C1323      C1325   1.401   1_565  A
C1323      C1324   1.403       .  A
C1324      H1331   1.085       .  S
C1325      H1332   1.084       .  S
C1325      C1326   1.395       .  A
C1326      H1333   1.083       .  S
C1326      C1327   1.404   1_545  A
C1327      C1328   1.403       .  A
C1328      H1334   1.085       .  S
C1335      C1336   1.406       .  A
C1335      C1340   1.407       .  A
C1336      H1345   1.083       .  S
C1336      C1337   1.398       .  A
C1337      H1346   1.084       .  S
C1337      C1338   1.402       .  A
C1338      C1344   1.402       .  A
C1338      C1339   1.413       .  A
C1339      C1341   1.402       .  A
C1339      C1340   1.401       .  A
C1340      H1347   1.084       .  S
C1341      H1348   1.084       .  S
C1341      C1342   1.396       .  A
C1342      H1349   1.083       .  S
C1342      C1343   1.403       .  A
C1343      C1344   1.405       .  A
C1344      H1350   1.085       .  S
C1351      C1352   1.406       .  A
C1351      C1356   1.409       .  A
C1352      H1361   1.083       .  S
C1352      C1353   1.399       .  A
C1353      H1362   1.083       .  S
C1353      C1354   1.403       .  A
C1354      C1360   1.402       .  A
C1354      C1355   1.413       .  A
C1355      C1357   1.404       .  A
C1355      C1356   1.399       .  A
C1356      H1363   1.084       .  S
C1357      H1364   1.083       .  S
C1357      C1358   1.396       .  A
C1358      H1365   1.083       .  S
C1358      C1359   1.400       .  A
C1359      C1360   1.403       .  A
C1360      H1366   1.084       .  S
C1367      C1368   1.404       .  A
C1367      C1372   1.409       .  A
C1368      H1377   1.083       .  S
C1368      C1369   1.402       .  A
C1369      H1378   1.084       .  S
C1369      C1370   1.405       .  A
C1370      C1376   1.409       .  A
C1370      C1371   1.413       .  A
C1371      C1373   1.404       .  A
C1371      C1372   1.408       .  A
C1372      H1379   1.084       .  S
C1373      H1380   1.084       .  S
C1373      C1374   1.400       .  A
C1374      H1381   1.083       .  S
C1374      C1375   1.406       .  A
C1375      C1376   1.410       .  A
C1376      H1382   1.084       .  S
C1383      C1384   1.403       .  A
C1383      C1388   1.407       .  A
C1384      H1393   1.083   1_655  S
C1384      C1385   1.399       .  A
C1385      H1394   1.084       .  S
C1385      C1386   1.404       .  A
C1386      C1392   1.403       .  A
C1386      C1387   1.412       .  A
C1387      C1389   1.404       .  A
C1387      C1388   1.403       .  A
C1388      H1395   1.085       .  S
C1389      H1396   1.084       .  S
C1389      C1390   1.399       .  A
C1390      H1397   1.083       .  S
C1390      C1391   1.404       .  A
C1391      C1392   1.409       .  A
C1392      H1398   1.085       .  S
C1399      C1400   1.403   1_455  A
C1399      C1404   1.404       .  A
C1400      H1409   1.083       .  S
C1400      C1401   1.399   1_655  A
C1401      H1410   1.083   1_455  S
C1401      C1402   1.404       .  A
C1402      C1408   1.406       .  A
C1402      C1403   1.414       .  A
C1403      C1405   1.401       .  A
C1403      C1404   1.404       .  A
C1404      H1411   1.084       .  S
C1405      H1412   1.084       .  S
C1405      C1406   1.398       .  A
C1406      H1413   1.083       .  S
C1406      C1407   1.407       .  A
C1407      C1408   1.409       .  A
C1408      H1414   1.084       .  S
C1415      C1416   1.402       .  A
C1415      C1420   1.407       .  A
C1416      H1425   1.083   1_565  S
C1416      C1417   1.398       .  A
C1417      H1426   1.084       .  S
C1417      C1418   1.404       .  A
C1418      C1424   1.405       .  A
C1418      C1419   1.413       .  A
C1419      C1421   1.404       .  A
C1419      C1420   1.406       .  A
C1420      H1427   1.084       .  S
C1421      H1428   1.084       .  S
C1421      C1422   1.401       .  A
C1422      H1429   1.083       .  S
C1422      C1423   1.406       .  A
C1423      C1424   1.409       .  A
C1424      H1430   1.084       .  S
C1431      C1432   1.408   1_455  A
C1431      C1436   1.409       .  A
C1432      H1441   1.084       .  S
C1432      C1433   1.395       .  A
C1433      H1442   1.083       .  S
C1433      C1434   1.400       .  A
C1434      C1440   1.403       .  A
C1434      C1435   1.414       .  A
C1435      C1437   1.405       .  A
C1435      C1436   1.409   1_655  A
C1436      H1443   1.083       .  S
C1437      H1444   1.083   1_655  S
C1437      C1438   1.402       .  A
C1438      H1445   1.083       .  S
C1438      C1439   1.403       .  A
C1439      C1440   1.403       .  A
C1440      H1446   1.084       .  S
C1447      C1448   1.403       .  A
C1447      C1452   1.404       .  A
C1448      H1457   1.083       .  S
C1448      C1449   1.399       .  A
C1449      H1458   1.083       .  S
C1449      C1450   1.404       .  A
C1450      C1456   1.405       .  A
C1450      C1451   1.414       .  A
C1451      C1453   1.402       .  A
C1451      C1452   1.405       .  A
C1452      H1459   1.084       .  S
C1453      H1460   1.084       .  S
C1453      C1454   1.398       .  A
C1454      H1461   1.083       .  S
C1454      C1455   1.406       .  A
C1455      C1456   1.408       .  A
C1456      H1462   1.084       .  S
C1463      C1464   1.407       .  A
C1463      C1468   1.412       .  A
C1464      H1473   1.083       .  S
C1464      C1465   1.401       .  A
C1465      H1474   1.083       .  S
C1465      C1466   1.403       .  A
C1466      C1472   1.409       .  A
C1466      C1467   1.414       .  A
C1467      C1469   1.404       .  A
C1467      C1468   1.407       .  A
C1468      H1475   1.084       .  S
C1469      H1476   1.083       .  S
C1469      C1470   1.399       .  A
C1470      H1477   1.083       .  S
C1470      C1471   1.402       .  A
C1471      C1472   1.405       .  A
C1472      H1478   1.084       .  S
C1479      C1480   1.407       .  A
C1479      C1484   1.410       .  A
C1480      H1489   1.083       .  S
C1480      C1481   1.397       .  A
C1481      H1490   1.084       .  S
C1481      C1482   1.401   1_565  A
C1482      C1488   1.405       .  A
C1482      C1483   1.414       .  A
C1483      C1485   1.404       .  A
C1483      C1484   1.408   1_545  A
C1484      H1491   1.084       .  S
C1485      H1492   1.084       .  S
C1485      C1486   1.400       .  A
C1486      H1493   1.083       .  S
C1486      C1487   1.404       .  A
C1487      C1488   1.405       .  A
C1488      H1494   1.085       .  S
C1495      C1496   1.403       .  A
C1495      C1500   1.401       .  A
C1496      H1505   1.083       .  S
C1496      C1497   1.402       .  A
C1497      H1506   1.083       .  S
C1497      C1498   1.406       .  A
C1498      C1504   1.411       .  A
C1498      C1499   1.415       .  A
C1499      C1501   1.398       .  A
C1499      C1500   1.401       .  A
C1500      H1507   1.084       .  S
C1501      H1508   1.083       .  S
C1501      C1502   1.392       .  A
C1502      H1509   1.084       .  S
C1502      C1503   1.408       .  A
C1503      C1504   1.409       .  A
C1504      H1510   1.083       .  S
C1511      C1512   1.407       .  A
C1511      C1516   1.409       .  A
C1512      H1521   1.083       .  S
C1512      C1513   1.394       .  A
C1513      H1522   1.083       .  S
C1513      C1514   1.399       .  A
C1514      C1520   1.401       .  A
C1514      C1515   1.414       .  A
C1515      C1517   1.406       .  A
C1515      C1516   1.409       .  A
C1516      H1523   1.083       .  S
C1517      H1524   1.083       .  S
C1517      C1518   1.402       .  A
C1518      H1525   1.083       .  S
C1518      C1519   1.402       .  A
C1519      C1520   1.402       .  A
C1520      H1526   1.084       .  S
C1527      C1528   1.402       .  A
C1527      C1532   1.407       .  A
C1528      H1537   1.083       .  S
C1528      C1529   1.397       .  A
C1529      H1538   1.084       .  S
C1529      C1530   1.403       .  A
C1530      C1536   1.405   1_545  A
C1530      C1531   1.414       .  A
C1531      C1533   1.404   1_545  A
C1531      C1532   1.410       .  A
C1532      H1539   1.084       .  S
C1533      H1540   1.083       .  S
C1533      C1534   1.403       .  A
C1534      H1541   1.083       .  S
C1534      C1535   1.408       .  A
C1535      C1536   1.409       .  A
C1536      H1542   1.084       .  S
C1543      C1544   1.406       .  A
C1543      C1548   1.402       .  A
C1544      H1553   1.083       .  S
C1544      C1545   1.397       .  A
C1545      H1554   1.084       .  S
C1545      C1546   1.402       .  A
C1546      C1552   1.401       .  A
C1546      C1547   1.414       .  A
C1547      C1549   1.400       .  A
C1547      C1548   1.397       .  A
C1548      H1555   1.085       .  S
C1549      H1556   1.084       .  S
C1549      C1550   1.393       .  A
C1550      H1557   1.083       .  S
C1550      C1551   1.403       .  A
C1551      C1552   1.404       .  A
C1552      H1558   1.084       .  S
C1559      C1560   1.406       .  A
C1559      C1564   1.406       .  A
C1560      H1569   1.083       .  S
C1560      C1561   1.400       .  A
C1561      H1570   1.084       .  S
C1561      C1562   1.403       .  A
C1562      C1568   1.405       .  A
C1562      C1563   1.414       .  A
C1563      C1565   1.401       .  A
C1563      C1564   1.402       .  A
C1564      H1571   1.085       .  S
C1565      H1572   1.084       .  S
C1565      C1566   1.396       .  A
C1566      H1573   1.083       .  S
C1566      C1567   1.405       .  A
C1567      C1568   1.406       .  A
C1568      H1574   1.085       .  S
C1575      C1576   1.407       .  A
C1575      C1580   1.408       .  A
C1576      H1585   1.083       .  S
C1576      C1577   1.399       .  A
C1577      H1586   1.084   1_455  S
C1577      C1578   1.402       .  A
C1578      C1584   1.404       .  A
C1578      C1579   1.414       .  A
C1579      C1581   1.403       .  A
C1579      C1580   1.402       .  A
C1580      H1587   1.084       .  S
C1581      H1588   1.084       .  S
C1581      C1582   1.396       .  A
C1582      H1589   1.083       .  S
C1582      C1583   1.402       .  A
C1583      C1584   1.404       .  A
C1584      H1590   1.084   1_455  S
C1591      C1592   1.405       .  A
C1591      C1596   1.410       .  A
C1592      H1601   1.083       .  S
C1592      C1593   1.403       .  A
C1593      H1602   1.083       .  S
C1593      C1594   1.406       .  A
C1594      C1600   1.408       .  A
C1594      C1595   1.412       .  A
C1595      C1597   1.404       .  A
C1595      C1596   1.403       .  A
C1596      H1603   1.084       .  S
C1597      H1604   1.084       .  S
C1597      C1598   1.398       .  A
C1598      H1605   1.083       .  S
C1598      C1599   1.403       .  A
C1599      C1600   1.410       .  A
C1600      H1606   1.084       .  S
C1607      C1608   1.403       .  A
C1607      C1612   1.404       .  A
C1608      H1617   1.083       .  S
C1608      C1609   1.397       .  A
C1609      H1618   1.084       .  S
C1609      C1610   1.403   1_655  A
C1610      C1616   1.404       .  A
C1610      C1611   1.414       .  A
C1611      C1613   1.401       .  A
C1611      C1612   1.403   1_455  A
C1612      H1619   1.085       .  S
C1613      H1620   1.084       .  S
C1613      C1614   1.397       .  A
C1614      H1621   1.083       .  S
C1614      C1615   1.406       .  A
C1615      C1616   1.407       .  A
C1616      H1622   1.084       .  S
C1623      C1624   1.402       .  A
C1623      C1628   1.406       .  A
C1624      H1633   1.083       .  S
C1624      C1625   1.397       .  A
C1625      H1634   1.084       .  S
C1625      C1626   1.403       .  A
C1626      C1632   1.405       .  A
C1626      C1627   1.414       .  A
C1627      C1629   1.403       .  A
C1627      C1628   1.408       .  A
C1628      H1635   1.084       .  S
C1629      H1636   1.084       .  S
C1629      C1630   1.401       .  A
C1630      H1637   1.083       .  S
C1630      C1631   1.407       .  A
C1631      C1632   1.409       .  A
C1632      H1638   1.084       .  S
