geometry optimzed in LAMMPS
_audit_creation_date              2020-11-30 
_audit_creation_method            'lammps2cif' 
_symmetry_space_group_name_H-M    'P1' 
_symmetry_Int_Tables_number       1 
_symmetry_cell_setting            triclinic 
loop_ 
_symmetry_equiv_pos_as_xyz 
  x,y,z 
_cell_length_a                    39.08138968 
_cell_length_b                    32.30905629016583 
_cell_length_c                    107.23648677077205 
_cell_angle_alpha                 90.35241502221831 
_cell_angle_beta                  89.95577403745153 
_cell_angle_gamma                 125.81869119950983 
loop_ 
_atom_site_label 
_atom_site_type_symbol 
_atom_site_fract_x 
_atom_site_fract_y 
_atom_site_fract_z 
_atom_site_charge 
N1          N  0.99628168  0.57579570  0.41765593    -0.27000
N2          N  0.99381492  0.55429975  0.42838734    -0.34800
C3          C  0.99222507  0.58115717  0.43774252     0.01400
C4          C  0.99366981  0.62181181  0.43274673     0.07400
C5          C  0.99640643  0.61694741  0.41993518    -0.05700
H6          H  0.98855784  0.57037704  0.44743631     0.08000
H7          H  0.99680159  0.64030172  0.41268540     0.09200
Cu8        Cu  0.98959387  0.48705658  0.42979632     0.44200
Cu9        Cu  0.99512160  0.54526861  0.40023767     0.42000
Cu10       Cu  0.98108536  0.42432566  0.40047660     0.43900
N11         N  0.98553124  0.41983789  0.42853832    -0.34400
N12         N  0.98221687  0.39708330  0.41786265    -0.28600
C13         C  0.98184478  0.35595607  0.42016529    -0.04700
C14         C  0.98511576  0.35225124  0.43295109     0.07500
C15         C  0.98736477  0.39366988  0.43791928     0.01300
H16         H  0.98025701  0.33139479  0.41294420     0.08900
H17         H  0.99134761  0.40512351  0.44760803     0.08000
N18         N  0.98384300  0.46059243  0.38417283    -0.35800
N19         N  0.98932216  0.50500187  0.38404147    -0.28000
C20         C  0.99011637  0.51827056  0.37210466    -0.03200
C21         C  0.98489481  0.48041528  0.36425756     0.05400
C22         C  0.98105599  0.44449387  0.37235602     0.03500
H23         H  0.99449250  0.55325131  0.36941263     0.08600
H24         H  0.97660512  0.40912527  0.36991920     0.07400
N25         N  0.43082000  0.95696867  0.09015572    -0.27000
N26         N  0.45001281  0.96028887  0.10065191    -0.34800
C27         C  0.42447093  0.95068289  0.11031913     0.01400
C28         C  0.38709565  0.94091022  0.10580009     0.07400
C29         C  0.39239395  0.94509344  0.09291920    -0.05700
H30         H  0.43332729  0.95237954  0.11995446     0.08000
H31         H  0.37077482  0.94202939  0.08604978     0.09200
Cu32       Cu  0.51142683  0.98186009  0.10167358     0.44200
Cu33       Cu  0.45913615  0.97207333  0.07259884     0.42000
Cu34       Cu  0.56517282  0.00524935  0.07232981     0.43900
N35         N  0.57338333  0.00566013  0.10028988    -0.34400
N36         N  0.59287686  0.01396344  0.08954498    -0.28600
C37         C  0.63217334  0.02798440  0.09174463    -0.04700
C38         C  0.63799032  0.02865403  0.10454520     0.07500
C39         C  0.59979340  0.01422147  0.10962949     0.01300
H40         H  0.65436943  0.03602938  0.08445866     0.08900
H41         H  0.59132702  0.00955184  0.11938110     0.08000
N42         N  0.53229311  0.99770104  0.05628980    -0.35800
N43         N  0.49395420  0.98664983  0.05630596    -0.28000
C44         C  0.48203871  0.98508640  0.04442140    -0.03200
C45         C  0.51432891  0.99532987  0.03649079     0.05400
C46         C  0.54565545  0.00317284  0.04445405     0.03500
H47         H  0.45167298  0.97612309  0.04179248     0.08600
H48         H  0.57615348  0.01236682  0.04191560     0.07400
N49         N  0.98612793  0.39595662  0.21678785    -0.27000
N50         N  0.99755006  0.42257519  0.20638819    -0.34800
C51         C  0.99226975  0.39237394  0.19676419     0.01400
C52         C  0.97670984  0.34406553  0.20126768     0.07400
C53         C  0.97333245  0.34814919  0.21405930    -0.05700
H54         H  0.99933133  0.40503188  0.18720238     0.08000
H55         H  0.96219247  0.31862908  0.22095536     0.09200
Cu56       Cu  0.01958484  0.49886474  0.20581145     0.44200
Cu57       Cu  0.98850173  0.42611713  0.23423761     0.42000
Cu58       Cu  0.02572304  0.55901421  0.23525115     0.43900
N59         N  0.03957119  0.57419746  0.20748307    -0.34400
N60         N  0.04165131  0.59616875  0.21816549    -0.28600
C61         C  0.05452619  0.64426463  0.21593642    -0.04700
C62         C  0.06083148  0.65323862  0.20318999     0.07500
C63         C  0.05107683  0.60768282  0.19819212     0.01300
H64         H  0.05820090  0.67025507  0.22310458     0.08900
H65         H  0.05173242  0.59888791  0.18849865     0.08000
N66         N  0.00874494  0.51344906  0.25098287    -0.35800
N67         N  0.99531824  0.46521116  0.25061953    -0.28000
C68         C  0.98787748  0.44717299  0.26233506    -0.03200
C69         C  0.99694799  0.48581429  0.27054274     0.05400
C70         C  0.01008474  0.52726766  0.26293561     0.03500
H71         H  0.97650547  0.40856885  0.26465219     0.08600
H72         H  0.02056813  0.56512510  0.26583715     0.07400
N73         N  0.88939068  0.03301430  0.15203832    -0.03200
C74         C  0.85820781  0.01596453  0.14345133    -0.00600
C75         C  0.84650061  0.97040628  0.13826160    -0.23500
C76         C  0.87116962  0.95848240  0.14375443    -0.23700
C77         C  0.89748632  0.99717738  0.15225719    -0.00700
H78         H  0.82282803  0.94850885  0.13112042     0.13100
H79         H  0.87104078  0.92591343  0.14125375     0.13100
N80         N  0.15740534  0.97042115  0.15684684    -0.03200
C81         C  0.19193150  0.99006744  0.14951507    -0.00600
C82         C  0.20807181  0.03930749  0.14614008    -0.23500
C83         C  0.18260006  0.05063850  0.15149457    -0.23700
C84         C  0.15135390  0.00778381  0.15802910    -0.00700
H85         H  0.23481928  0.06382649  0.14013539     0.13100
H86         H  0.18532781  0.08555949  0.15004304     0.13100
N87         N  0.47533419  0.04913215  0.89023420    -0.27000
N88         N  0.48478396  0.03868644  0.87938206    -0.34800
C89         C  0.46513186  0.04581868  0.87025524     0.01400
C90         C  0.44183233  0.06131281  0.87557793     0.07400
C91         C  0.44948319  0.06317959  0.88830185    -0.05700
H92         H  0.46620978  0.03771352  0.86052864     0.08000
H93         H  0.43572114  0.07155247  0.89575160     0.09200
Cu94       Cu  0.51975870  0.00916766  0.87758408     0.44200
Cu95       Cu  0.49317799  0.03739456  0.90734817     0.42000
Cu96       Cu  0.54668971  0.97654153  0.90652813     0.43900
N97         N  0.55222103  0.97615330  0.87839784    -0.34400
N98         N  0.56144176  0.96374604  0.88894695    -0.28600
C99         C  0.58397485  0.94545105  0.88638470    -0.04700
C100        C  0.58963853  0.94647363  0.87355963     0.07500
C101        C  0.56877915  0.96613356  0.86884117     0.01300
H102        H  0.59652402  0.93409529  0.89347300     0.08900
H103        H  0.56715643  0.97469390  0.85922278     0.08000
N104        N  0.53024143  0.99520532  0.92297307    -0.35800
N105        N  0.51027595  0.01698527  0.92324636    -0.28000
C106        C  0.50297683  0.02253175  0.93518846    -0.03200
C107        C  0.51938407  0.00367217  0.94285961     0.05400
C108        C  0.53657832  0.98683122  0.93475090     0.03500
H109        H  0.48709263  0.03939869  0.93805218     0.08600
H110        H  0.55182927  0.96882468  0.93719868     0.07400
N111        N  0.84352521  0.96122319  0.82434082    -0.03200
C112        C  0.88585566  0.99918883  0.82373822    -0.00600
C113        C  0.89496558  0.04086314  0.83075352    -0.23500
C114        C  0.85795532  0.02836186  0.83582737    -0.23700
C115        C  0.82705202  0.97962212  0.83180546    -0.00700
H116        H  0.92570816  0.07560727  0.83279346     0.13100
H117        H  0.85416921  0.05158280  0.84216733     0.13100
N118        N  0.17776823  0.03582745  0.82978802    -0.03200
C119        C  0.13537384  0.99819171  0.82917153    -0.00600
C120        C  0.12551296  0.95883877  0.83713991    -0.23500
C121        C  0.16214324  0.97241792  0.84275967    -0.23700
C122        C  0.19351782  0.01951913  0.83814635    -0.00700
H123        H  0.09461145  0.92473345  0.83925926     0.13100
H124        H  0.16552831  0.95055202  0.84960345     0.13100
N125        N  0.59088308  0.57889021  0.76491386    -0.27000
N126        N  0.57317479  0.55848702  0.77579444    -0.34800
C127        C  0.59764609  0.59158675  0.78494684     0.01400
C128        C  0.63266252  0.63540329  0.77967576     0.07400
C129        C  0.62704162  0.62558160  0.76690400    -0.05700
H130        H  0.58970200  0.58437533  0.79472322     0.08000
H131        H  0.64733916  0.65068803  0.75951956     0.09200
Cu132      Cu  0.51492833  0.48769751  0.77790218     0.44200
Cu133      Cu  0.56407733  0.54310318  0.74773946     0.42000
Cu134      Cu  0.45886873  0.42572211  0.74933552     0.43900
N135        N  0.45467370  0.41868142  0.77733768    -0.34400
N136        N  0.43420198  0.39682337  0.76680757    -0.28600
C137        C  0.39684320  0.35270670  0.76935666    -0.04700
C138        C  0.39326164  0.34587085  0.78217301     0.07500
C139        C  0.43068613  0.38879815  0.78691144     0.01300
H140        H  0.37436193  0.32728009  0.76230253     0.08900
H141        H  0.44041785  0.39723400  0.79657546     0.08000
N142        N  0.49041028  0.45748784  0.73274488    -0.35800
N143        N  0.52896957  0.50007755  0.73205733    -0.28000
C144        C  0.53997853  0.51008888  0.71996070    -0.03200
C145        C  0.50666055  0.47194949  0.71262850     0.05400
C146        C  0.47587089  0.43927940  0.72117464     0.03500
H147        H  0.56995401  0.54319316  0.71681390     0.08600
H148        H  0.44494021  0.40485247  0.71922485     0.07400
N149        N  0.57290998  0.54898411  0.56584685    -0.27000
N150        N  0.54932945  0.53357352  0.55568200    -0.34800
C151        C  0.57249277  0.56417354  0.54614071     0.01400
C152        C  0.61318297  0.60080930  0.55034059     0.07400
C153        C  0.61229810  0.58971503  0.56293331    -0.05700
H154        H  0.56078449  0.55903626  0.53670651     0.08000
H155        H  0.63823233  0.60998735  0.56949246     0.09200
Cu156      Cu  0.48719635  0.46944496  0.55514482     0.44200
Cu157      Cu  0.54686864  0.51235404  0.58297812     0.42000
Cu158      Cu  0.43141103  0.40584332  0.58344152     0.43900
N159        N  0.42586785  0.40371513  0.55555671    -0.34400
N160        N  0.40423397  0.38111131  0.56582838    -0.28600
C161        C  0.36492842  0.34094234  0.56263873    -0.04700
C162        C  0.36224062  0.33780658  0.54972686     0.07500
C163        C  0.40144939  0.37819881  0.54560776     0.01300
H164        H  0.34043908  0.31560582  0.56920128     0.08900
H165        H  0.41125969  0.38912151  0.53603560     0.08000
N166        N  0.46993779  0.43695712  0.59916835    -0.35800
N167        N  0.51093608  0.47393862  0.59895606    -0.28000
C168        C  0.52545180  0.48487501  0.61075588    -0.03200
C169        C  0.49222757  0.45371215  0.61888048     0.05400
C170        C  0.45754965  0.42368832  0.61109792     0.03500
H171        H  0.55796845  0.51419730  0.61315985     0.08600
H172        H  0.42532132  0.39492076  0.61385706     0.07400
N173        N  0.10381058  0.16887910  0.48345096    -0.03200
C174        C  0.14630814  0.19488317  0.48491054    -0.00600
C175        C  0.16770400  0.23440684  0.47648379    -0.23500
C176        C  0.13782034  0.23333865  0.46960707    -0.23700
C177        C  0.09908682  0.19317480  0.47400087    -0.00700
H178        H  0.20145327  0.26312252  0.47597478     0.13100
H179        H  0.14360889  0.26073288  0.46260473     0.13100
N180        N  0.87303229  0.80471941  0.48447517    -0.03200
C181        C  0.83078404  0.78231823  0.48595089    -0.00600
C182        C  0.80829066  0.75164612  0.47577442    -0.23500
C183        C  0.83661937  0.75373387  0.46789179    -0.23700
C184        C  0.87578444  0.78542302  0.47340558    -0.00700
H185        H  0.77434322  0.72696595  0.47464234     0.13100
H186        H  0.82900244  0.73089348  0.45953401     0.13100
C187        C  0.92359484  0.98042923  0.49422640    -0.17500
C188        C  0.95654646  0.03262750  0.49394732    -0.19700
C189        C  0.99831528  0.04918446  0.49208137     0.21000
C190        C  0.00716437  0.01271364  0.49114509    -0.02600
C191        C  0.97389940  0.95996575  0.49157157    -0.05700
C192        C  0.93185149  0.94380418  0.49275833     0.21200
C193        C  0.98253876  0.92348532  0.49016360     0.19400
C194        C  0.02453124  0.94005712  0.48881923    -0.17200
C195        C  0.05740762  0.99224031  0.48826082    -0.19400
C196        C  0.04893471  0.02882424  0.48916217     0.19100
C197        C  0.08109950  0.08093352  0.48746164    -0.32400
C198        C  0.07220428  0.11741363  0.48767018     0.01600
C199        C  0.03097548  0.10128099  0.49051715    -0.23700
C200        C  0.89864772  0.89163255  0.49162783    -0.28300
C201        C  0.90666373  0.85493697  0.48928588     0.07300
C202        C  0.94897943  0.87130685  0.48936077    -0.27000
H203        H  0.89150270  0.96871810  0.49522300     0.12000
H204        H  0.94914870  0.06005122  0.49475555     0.13100
H205        H  0.03182255  0.91261813  0.48774496     0.12200
H206        H  0.08933862  0.00393928  0.48679437     0.11400
H207        H  0.11261766  0.09274067  0.48519272     0.16800
H208        H  0.02390446  0.12895315  0.49107508     0.12700
H209        H  0.86655081  0.88031019  0.49156031     0.15600
H210        H  0.95611752  0.84397771  0.48810553     0.15400
C211        C  0.21140060  0.24654710  0.53863090    -0.17500
C212        C  0.17985331  0.22418655  0.52943626    -0.19700
C213        C  0.18796378  0.21386973  0.51748611     0.21000
C214        C  0.22781569  0.22441639  0.51493323    -0.02600
C215        C  0.25968149  0.24721277  0.52417712    -0.05700
C216        C  0.25168910  0.25914979  0.53602601     0.21200
C217        C  0.30022162  0.26054364  0.52132099     0.19400
C218        C  0.30809254  0.24901348  0.50950503    -0.17200
C219        C  0.27660945  0.22654609  0.50035980    -0.19400
C220        C  0.23674804  0.21518861  0.50290137     0.20900
C221        C  0.20686330  0.19845313  0.49336560    -0.32400
C222        C  0.16852643  0.19181646  0.49559918     0.01600
C223        C  0.15822832  0.19690993  0.50779590    -0.23700
C224        C  0.28470786  0.28578267  0.54479924    -0.28300
C225        C  0.32568743  0.30170256  0.54167094     0.07300
C226        C  0.33280804  0.28753073  0.53008636    -0.27000
H227        H  0.20466244  0.25537669  0.54765866     0.12000
H228        H  0.14949390  0.21641373  0.53156311     0.13100
H229        H  0.33904080  0.25886483  0.50720486     0.12200
H230        H  0.28389290  0.21964436  0.49116495     0.11400
H231        H  0.21487652  0.19493707  0.48391987     0.16800
H232        H  0.12898141  0.19271748  0.50946526     0.12700
H233        H  0.27918089  0.29687012  0.55370642     0.15600
H234        H  0.36427096  0.29921553  0.52771490     0.15400
C235        C  0.76567212  0.70586155  0.53923497    -0.17500
C236        C  0.79743332  0.73358356  0.53027348    -0.19700
C237        C  0.78876032  0.74740498  0.51894276     0.21000
C238        C  0.74805375  0.73525341  0.51696027    -0.02600
C239        C  0.71577990  0.70642441  0.52589962    -0.05700
C240        C  0.72439735  0.69080846  0.53700188     0.21200
C241        C  0.67441241  0.69111772  0.52342284     0.19400
C242        C  0.66615034  0.70715104  0.51241426    -0.17200
C243        C  0.69811876  0.73616465  0.50367006    -0.19400
C244        C  0.73882730  0.74922106  0.50571186     0.20900
C245        C  0.76934088  0.77240790  0.49628574    -0.32400
C246        C  0.80829358  0.77934914  0.49757046     0.01600
C247        C  0.81880075  0.76952497  0.50921107    -0.23700
C248        C  0.69126340  0.65860869  0.54536859    -0.28300
C249        C  0.64941561  0.64067868  0.54257494     0.07300
C250        C  0.64165276  0.65837509  0.53172152    -0.27000
H251        H  0.77306480  0.69463504  0.54773563     0.12000
H252        H  0.82849246  0.74283776  0.53205392     0.13100
H253        H  0.63465452  0.69608434  0.51040299     0.12200
H254        H  0.69054463  0.74666100  0.49507477     0.11400
H255        H  0.76115973  0.78042066  0.48740921     0.16800
H256        H  0.84858008  0.77448778  0.51029505     0.12700
H257        H  0.69768593  0.64534120  0.55368832     0.15600
H258        H  0.60980551  0.64575377  0.52956925     0.15400
C259        C  0.42512842  0.38304933  0.66032284    -0.17500
C260        C  0.42729430  0.38554451  0.67339471    -0.19700
C261        C  0.46431835  0.42484269  0.67951468     0.21000
C262        C  0.49938599  0.46182556  0.67237015    -0.02600
C263        C  0.49725143  0.45919971  0.65919224    -0.05700
C264        C  0.45995607  0.41969126  0.65311303     0.21200
C265        C  0.53249621  0.49625515  0.65211664     0.19400
C266        C  0.56940284  0.53561326  0.65819988    -0.17200
C267        C  0.57146611  0.53829641  0.67120794    -0.19400
C268        C  0.53669868  0.50161884  0.67837326     0.20900
C269        C  0.53874994  0.50430905  0.69143267    -0.32400
C270        C  0.50403249  0.46781728  0.69872515     0.01600
C271        C  0.46685020  0.42794682  0.69262938    -0.23700
C272        C  0.45828254  0.41770632  0.63996724    -0.28300
C273        C  0.49353247  0.45470660  0.63281520     0.07300
C274        C  0.53043080  0.49370078  0.63907257    -0.27000
H275        H  0.39615351  0.35238007  0.65585299     0.12000
H276        H  0.40000519  0.35681044  0.67871159     0.13100
H277        H  0.59672106  0.56441808  0.65288870     0.12200
H278        H  0.60034447  0.56914043  0.67566859     0.11400
H279        H  0.56763547  0.53513731  0.69585089     0.16800
H280        H  0.43971885  0.39944008  0.69800555     0.12700
H281        H  0.42957396  0.38724295  0.63536179     0.15600
H282        H  0.55777085  0.52279757  0.63384833     0.15400
C283        C  0.26560426  0.16641769  0.78312856    -0.17500
C284        C  0.23461208  0.12307998  0.78978362    -0.19700
C285        C  0.23293031  0.12471928  0.80283986     0.21000
C286        C  0.26255068  0.17080340  0.80922515    -0.02600
C287        C  0.29392341  0.21450033  0.80250621    -0.05700
C288        C  0.29556926  0.21219875  0.78940430     0.21200
C289        C  0.32406096  0.26015203  0.80892327     0.19400
C290        C  0.32221323  0.26198125  0.82197158    -0.17200
C291        C  0.29120415  0.21875256  0.82862422    -0.19400
C292        C  0.26147885  0.17293593  0.82235181     0.20900
C293        C  0.23157690  0.12881400  0.82899815    -0.32400
C294        C  0.20298413  0.08235047  0.82274892     0.01600
C295        C  0.20313645  0.08078836  0.80965489    -0.23700
C296        C  0.32753370  0.25539233  0.78282691    -0.28300
C297        C  0.35825617  0.30098156  0.78915645     0.07300
C298        C  0.35589421  0.30298661  0.80222789    -0.27000
H299        H  0.26640252  0.16395327  0.77306274     0.12000
H300        H  0.21223012  0.08808232  0.78472090     0.13100
H301        H  0.34504000  0.29669741  0.82704765     0.12200
H302        H  0.29082164  0.22098494  0.83870590     0.11400
H303        H  0.23132157  0.12994457  0.83909859     0.16800
H304        H  0.18137001  0.04481339  0.80486120     0.12700
H305        H  0.32883965  0.25284924  0.77279129     0.15600
H306        H  0.37886722  0.33774017  0.80724873     0.15400
C307        C  0.79148471  0.86095622  0.78539539    -0.17500
C308        C  0.76113955  0.81547389  0.77911841    -0.19700
C309        C  0.73022760  0.77184070  0.78578538     0.21000
C310        C  0.73049515  0.77392357  0.79893105    -0.02600
C311        C  0.76122226  0.81976247  0.80527323    -0.05700
C312        C  0.79160879  0.86370765  0.79847548     0.21200
C313        C  0.76087770  0.82187091  0.81841710     0.19400
C314        C  0.73047284  0.77817106  0.82510371    -0.17200
C315        C  0.70010617  0.73291139  0.81883343    -0.19400
C316        C  0.69962711  0.73050383  0.80574948     0.20900
C317        C  0.66841554  0.68555247  0.79941480    -0.32400
C318        C  0.66721961  0.68300919  0.78627102     0.01600
C319        C  0.69873716  0.72647978  0.77955363    -0.23700
C320        C  0.82053421  0.90988017  0.80486858    -0.28300
C321        C  0.81911971  0.91254656  0.81794406     0.07300
C322        C  0.79003774  0.86801221  0.82463538    -0.27000
H323        H  0.81454232  0.89419427  0.78000474     0.12000
H324        H  0.76155204  0.81462549  0.76901536     0.13100
H325        H  0.72977585  0.77918854  0.83520392     0.12200
H326        H  0.67670539  0.69992977  0.82421877     0.11400
H327        H  0.64494366  0.65278679  0.80480944     0.16800
H328        H  0.69861303  0.72554377  0.76945837     0.12700
H329        H  0.84282257  0.94426161  0.79969707     0.15600
H330        H  0.78933248  0.86987284  0.83471874     0.15400
C331        C  0.07341785  0.09024359  0.81754777    -0.17500
C332        C  0.03724256  0.08919758  0.81628616    -0.19700
C333        C  0.99685980  0.04266836  0.81663075     0.21000
C334        C  0.99288632  0.99663015  0.81755558    -0.02600
C335        C  0.02947228  0.99760844  0.81837171    -0.05700
C336        C  0.06989648  0.04469081  0.81884576     0.21200
C337        C  0.02544573  0.95157194  0.81939016     0.19400
C338        C  0.98510904  0.90496103  0.81939758    -0.17200
C339        C  0.94891526  0.90413218  0.81905639    -0.19400
C340        C  0.95239939  0.94980315  0.81836248     0.20900
C341        C  0.91641284  0.94971651  0.81929836    -0.32400
C342        C  0.92028314  0.99584171  0.81907956     0.01600
C343        C  0.96052236  0.04169018  0.81688517    -0.23700
C344        C  0.10566775  0.04549314  0.82140615    -0.28300
C345        C  0.10159472  0.99958459  0.82308138     0.07300
C346        C  0.06158418  0.95292714  0.82117034    -0.27000
H347        H  0.10408625  0.12674293  0.81779485     0.12000
H348        H  0.04082222  0.12499722  0.81558498     0.13100
H349        H  0.98153090  0.86920416  0.82020859     0.12200
H350        H  0.91816899  0.86777286  0.81961895     0.11400
H351        H  0.88618048  0.91412437  0.82114736     0.16800
H352        H  0.96408849  0.07750084  0.81634898     0.12700
H353        H  0.13571233  0.08177811  0.82294781     0.15600
H354        H  0.05788429  0.91711390  0.82199338     0.15400
C355        C  0.36368897  0.05039329  0.83773904    -0.17500
C356        C  0.32966462  0.04712463  0.83225479    -0.19700
C357        C  0.30305551  0.05333179  0.83951719     0.21000
C358        C  0.31191665  0.06507143  0.85234796    -0.02600
C359        C  0.34628610  0.06843209  0.85786976    -0.05700
C360        C  0.37178090  0.06006831  0.85057973     0.21200
C361        C  0.35398807  0.07799171  0.87078148     0.19400
C362        C  0.32815946  0.08572081  0.87799125    -0.17200
C363        C  0.29389213  0.08189543  0.87255934    -0.19400
C364        C  0.28503406  0.07056209  0.85981552     0.20900
C365        C  0.24820534  0.06110711  0.85460386    -0.32400
C366        C  0.23785149  0.04607975  0.84207061     0.01600
C367        C  0.26617485  0.04448773  0.83440752    -0.23700
C368        C  0.40394952  0.05974520  0.85631646    -0.28300
C369        C  0.41089586  0.06730303  0.86929833     0.07300
C370        C  0.38635110  0.07781151  0.87636635    -0.27000
H371        H  0.38306913  0.04410532  0.83198443     0.12000
H372        H  0.32339861  0.03817431  0.82239912     0.13100
H373        H  0.33374108  0.09330204  0.88791174     0.12200
H374        H  0.27360272  0.08635994  0.87840267     0.11400
H375        H  0.22590198  0.06163000  0.86050363     0.16800
H376        H  0.25764872  0.03201525  0.82478594     0.12700
H377        H  0.42267271  0.05218407  0.85065810     0.15600
H378        H  0.39130482  0.08431393  0.88631418     0.15400
C379        C  0.65427436  0.94194161  0.83416967    -0.17500
C380        C  0.68728499  0.94470657  0.82807636    -0.19700
C381        C  0.71630305  0.94142303  0.83486726     0.21000
C382        C  0.71047633  0.93226662  0.84782985    -0.02600
C383        C  0.67727234  0.92968340  0.85397582    -0.05700
C384        C  0.64976281  0.93597340  0.84716683     0.21200
C385        C  0.67311722  0.92368370  0.86702942     0.19400
C386        C  0.70075204  0.91770159  0.87374657    -0.17200
C387        C  0.73372396  0.92050880  0.86768532    -0.19400
C388        C  0.73952057  0.92920672  0.85480612     0.20900
C389        C  0.77557752  0.93883482  0.84897341    -0.32400
C390        C  0.78323993  0.95202419  0.83632039     0.01600
C391        C  0.75269851  0.95097444  0.82915189    -0.23700
C392        C  0.61964710  0.93871460  0.85353286    -0.28300
C393        C  0.61697590  0.93588983  0.86665862     0.07300
C394        C  0.64286983  0.92636378  0.87324392    -0.27000
H395        H  0.63317431  0.94631483  0.82876677     0.12000
H396        H  0.69103086  0.95132363  0.81811574     0.13100
H397        H  0.69779329  0.91267417  0.88376526     0.12200
H398        H  0.75563235  0.91777802  0.87315197     0.11400
H399        H  0.79952738  0.94029840  0.85448938     0.16800
H400        H  0.75904911  0.96191975  0.81942718     0.12700
H401        H  0.59946602  0.94495351  0.84825446     0.15600
H402        H  0.64112475  0.92339214  0.88329672     0.15400
C403        C  0.99606838  0.90770600  0.16206335    -0.17500
C404        C  0.96002360  0.90716552  0.16169001    -0.19700
C405        C  0.96363734  0.95303966  0.16216825     0.21000
C406        C  0.00355440  0.99961076  0.16377161    -0.02600
C407        C  0.03980161  0.99993955  0.16466174    -0.05700
C408        C  0.03623002  0.95401874  0.16328273     0.21200
C409        C  0.07981855  0.04654466  0.16614148     0.19400
C410        C  0.08320830  0.09221964  0.16705876    -0.17200
C411        C  0.04748343  0.09205048  0.16568117    -0.19400
C412        C  0.00755944  0.04603388  0.16374036     0.20900
C413        C  0.97219613  0.04582115  0.16094445    -0.32400
C414        C  0.93256458  0.99944895  0.15865793     0.01600
C415        C  0.92835599  0.95328001  0.16023533    -0.23700
C416        C  0.07287257  0.95560836  0.16223007    -0.28300
C417        C  0.11310541  0.00249288  0.16288427     0.07300
C418        C  0.11597098  0.04714957  0.16575290    -0.27000
H419        H  0.99261056  0.87204435  0.16107386     0.12000
H420        H  0.92945138  0.87100133  0.16043234     0.13100
H421        H  0.11379970  0.12840504  0.16822404     0.12200
H422        H  0.05125215  0.12804318  0.16581438     0.11400
H423        H  0.97650145  0.08178000  0.15969493     0.16800
H424        H  0.89785945  0.91706127  0.15896601     0.12700
H425        H  0.06966642  0.92088881  0.15989215     0.15600
H426        H  0.14665569  0.08339882  0.16663511     0.15400
C427        C  0.08447072  0.74417333  0.16349230    -0.17500
C428        C  0.09633718  0.78804045  0.15696389    -0.19700
C429        C  0.10863077  0.83269610  0.16341417     0.21000
C430        C  0.10824781  0.83292296  0.17657638    -0.02600
C431        C  0.09624134  0.78857920  0.18316817    -0.05700
C432        C  0.08459876  0.74416634  0.17658465     0.21200
C433        C  0.09643221  0.78892015  0.19632187     0.19400
C434        C  0.10823460  0.83347407  0.20276549    -0.17200
C435        C  0.12027717  0.87748485  0.19623817    -0.19400
C436        C  0.12069245  0.87774036  0.18315097     0.20900
C437        C  0.13463223  0.92237780  0.17652116    -0.32400
C438        C  0.13669102  0.92282981  0.16343841     0.01600
C439        C  0.12255414  0.87754531  0.15694480    -0.23700
C440        C  0.07339582  0.70051727  0.18317425    -0.28300
C441        C  0.07343150  0.70023614  0.19631797     0.07300
C442        C  0.08504900  0.74485784  0.20280093    -0.27000
H443        H  0.07548764  0.71032308  0.15829138     0.12000
H444        H  0.09644608  0.78724359  0.14686119     0.13100
H445        H  0.10848837  0.83442346  0.21286551     0.12200
H446        H  0.12972828  0.91153236  0.20143640     0.11400
H447        H  0.14576463  0.95745252  0.18150601     0.16800
H448        H  0.12360084  0.87780490  0.14685065     0.12700
H449        H  0.06443131  0.66676035  0.17797131     0.15600
H450        H  0.08549484  0.74566228  0.21288726     0.15400
C451        C  0.91609987  0.11969418  0.19247048    -0.17500
C452        C  0.92715341  0.16297291  0.19933442    -0.19700
C453        C  0.94110161  0.20873761  0.19327011     0.21000
C454        C  0.94409193  0.21090605  0.18015539    -0.02600
C455        C  0.93295034  0.16722566  0.17322044    -0.05700
C456        C  0.91877121  0.12130596  0.17940542     0.21200
C457        C  0.93542004  0.16933267  0.16009031     0.19400
C458        C  0.94928384  0.21498993  0.15401581    -0.17200
C459        C  0.96043344  0.25821739  0.16088142    -0.19400
C460        C  0.95785101  0.25655479  0.17394895     0.20900
C461        C  0.96856231  0.29968281  0.18087877    -0.32400
C462        C  0.96566761  0.29809976  0.19399612     0.01600
C463        C  0.95189816  0.25220912  0.20008784    -0.23700
C464        C  0.90652874  0.07760229  0.17239458    -0.28300
C465        C  0.90788155  0.07923063  0.15930012     0.07300
C466        C  0.92305638  0.12545298  0.15324942    -0.27000
H467        H  0.90517242  0.08481346  0.19738688     0.12000
H468        H  0.92461151  0.16056633  0.20940452     0.13100
H469        H  0.95123917  0.21717865  0.14393348     0.12200
H470        H  0.97088408  0.29291935  0.15595682     0.11400
H471        H  0.97888652  0.33429377  0.17596495     0.16800
H472        H  0.94947078  0.24997763  0.21014640     0.12700
H473        H  0.89436125  0.04181457  0.17704306     0.15600
H474        H  0.92415876  0.12667432  0.14315084     0.15400
C475        C  0.57964060  0.00042259  0.98316214    -0.17500
C476        C  0.57924083  0.99998638  0.99621564    -0.19700
C477        C  0.54759625  0.99872776  0.00281822     0.21000
C478        C  0.51606751  0.99794239  0.99619128    -0.02600
C479        C  0.51666098  0.99880562  0.98300654    -0.05700
C480        C  0.54854073  0.99990100  0.97646664     0.21200
C481        C  0.48545020  0.99874436  0.97638489     0.19400
C482        C  0.45364511  0.99711655  0.98297989    -0.17200
C483        C  0.45287157  0.99584237  0.99602737    -0.19400
C484        C  0.48399751  0.99640997  0.00272712     0.20900
C485        C  0.48361536  0.99557420  0.01583258    -0.32400
C486        C  0.51499307  0.99646727  0.02257108     0.01600
C487        C  0.54693035  0.99814040  0.01591778    -0.23700
C488        C  0.54892473  0.00079557  0.96336575    -0.28300
C489        C  0.51827399  0.00151047  0.95669486     0.07300
C490        C  0.48663012  0.00045080  0.96329910    -0.27000
H491        H  0.60439689  0.00135587  0.97830053     0.12000
H492        H  0.60370686  0.00057696  0.00115420     0.13100
H493        H  0.42935715  0.99688365  0.97804322     0.12200
H494        H  0.42796784  0.99460753  0.00088556     0.11400
H495        H  0.45896218  0.99464232  0.02074226     0.16800
H496        H  0.57118555  0.99843675  0.02087562     0.12700
H497        H  0.57361304  0.00198073  0.95838099     0.15600
H498        H  0.46256437  0.00034755  0.95825915     0.15400
C499        C  0.24746297  0.91099484  0.10787188    -0.17500
C500        C  0.21900243  0.91643876  0.11423125    -0.19700
C501        C  0.22625937  0.93254879  0.12674004     0.21000
C502        C  0.26134301  0.94069037  0.13310297    -0.02600
C503        C  0.29010882  0.93527275  0.12666724    -0.05700
C504        C  0.28369415  0.92163023  0.11391105     0.21200
C505        C  0.32636399  0.94604478  0.13283332     0.19400
C506        C  0.33262385  0.95996469  0.14550410    -0.17200
C507        C  0.30429811  0.96564625  0.15185955    -0.19400
C508        C  0.26912075  0.95729245  0.14567136     0.20900
C509        C  0.24322736  0.96846347  0.15154451    -0.32400
C510        C  0.21006237  0.96361416  0.14495271     0.01600
C511        C  0.20077638  0.94398669  0.13273605    -0.23700
C512        C  0.31449095  0.92110797  0.10728168    -0.28300
C513        C  0.35192720  0.93451499  0.11319166     0.07300
C514        C  0.35674928  0.94513205  0.12610323    -0.27000
H515        H  0.24182498  0.90004159  0.09811231     0.12000
H516        H  0.19205401  0.90970171  0.10923813     0.13100
H517        H  0.36018446  0.96806920  0.15040209     0.12200
H518        H  0.31064448  0.97814281  0.16151294     0.11400
H519        H  0.25067656  0.98444615  0.16089985     0.16800
H520        H  0.17549426  0.94108185  0.12762961     0.12700
H521        H  0.30977115  0.91181434  0.09743028     0.15600
H522        H  0.38506090  0.95519483  0.13087832     0.15400
C523        C  0.73965248  0.02690029  0.14877557    -0.17500
C524        C  0.70694559  0.02568089  0.14300397    -0.19700
C525        C  0.70873466  0.03595456  0.13021937     0.21000
C526        C  0.74464453  0.04973432  0.12330763    -0.02600
C527        C  0.77766337  0.05104299  0.12912402    -0.05700
C528        C  0.77468221  0.03837204  0.14186012     0.21200
C529        C  0.81236999  0.06188558  0.12199961     0.19400
C530        C  0.81490314  0.07392247  0.10933425    -0.17200
C531        C  0.78238347  0.07305583  0.10360963    -0.19400
C532        C  0.74672543  0.05988568  0.11044762     0.20900
C533        C  0.71250608  0.05485236  0.10452795    -0.32400
C534        C  0.67570039  0.03894561  0.11120157     0.01600
C535        C  0.67459881  0.03081709  0.12414385    -0.23700
C536        C  0.80507675  0.03358518  0.14716228    -0.28300
C537        C  0.83757939  0.04025339  0.13977186     0.07300
C538        C  0.84221223  0.05665757  0.12741086    -0.27000
H539        H  0.73687281  0.01720725  0.15855767     0.12000
H540        H  0.67970723  0.01532450  0.14846867     0.13100
H541        H  0.84142273  0.08243767  0.10375763     0.12200
H542        H  0.78454399  0.08119133  0.09373659     0.11400
H543        H  0.71439068  0.06213386  0.09462546     0.16800
H544        H  0.64677411  0.01889241  0.12948024     0.12700
H545        H  0.80122089  0.01997716  0.15663629     0.15600
H546        H  0.86706311  0.06098601  0.12171089     0.15400
C547        C  0.98544390  0.40330911  0.31082555    -0.17500
C548        C  0.98347562  0.40235267  0.32388122    -0.19700
C549        C  0.98414422  0.44045634  0.33052087     0.21000
C550        C  0.98635915  0.47954191  0.32390050    -0.02600
C551        C  0.98838385  0.48053862  0.31072044    -0.05700
C552        C  0.98808681  0.44235646  0.30415264     0.21200
C553        C  0.99099888  0.51996623  0.30413743     0.19400
C554        C  0.99101378  0.55759840  0.31074476    -0.17200
C555        C  0.98895822  0.55657009  0.32377200    -0.19400
C556        C  0.98691154  0.51793153  0.33044027     0.20900
C557        C  0.98584442  0.51745973  0.34353062    -0.32400
C558        C  0.98441107  0.47923374  0.35030474     0.01600
C559        C  0.98312280  0.44048587  0.34364683    -0.23700
C560        C  0.99066665  0.44406939  0.29105603    -0.28300
C561        C  0.99368848  0.48360158  0.28440335     0.07300
C562        C  0.99368907  0.52127523  0.29107483    -0.27000
H563        H  0.98509367  0.37358686  0.30594766     0.12000
H564        H  0.98168502  0.37194112  0.32879115     0.13100
H565        H  0.99284276  0.58804825  0.30583530     0.12200
H566        H  0.98927557  0.58626838  0.32864241     0.11400
H567        H  0.98639693  0.54728452  0.34838709     0.16800
H568        H  0.98191109  0.41061304  0.34861574     0.12700
H569        H  0.99089283  0.41493623  0.28609400     0.15600
H570        H  0.99545176  0.55157977  0.28612924     0.15400
C571        C  0.02296062  0.19170048  0.43849690    -0.17500
C572        C  0.00958031  0.21810741  0.43240963    -0.19700
C573        C  0.00259315  0.24987152  0.43916641     0.21000
C574        C  0.00666582  0.25264919  0.45226652    -0.02600
C575        C  0.01987637  0.22567164  0.45843184    -0.05700
C576        C  0.02942836  0.19647860  0.45144751     0.21200
C577        C  0.02689188  0.23136643  0.47143832     0.19400
C578        C  0.01781254  0.26103808  0.47826408    -0.17200
C579        C  0.00447977  0.28749671  0.47216223    -0.19400
C580        C  0.00010815  0.28482651  0.45912831     0.20900
C581        C  0.99129655  0.31558881  0.45281140    -0.32400
C582        C  0.98936376  0.31515064  0.43967960     0.01600
C583        C  0.99369020  0.28075719  0.43298675    -0.23700
C584        C  0.04914578  0.17687911  0.45732764    -0.28300
C585        C  0.06035921  0.18724687  0.46999133     0.07300
C586        C  0.04679324  0.21166157  0.47715727    -0.27000
H587        H  0.02997324  0.16927827  0.43300444     0.12000
H588        H  0.00627154  0.21521522  0.42234889     0.13100
H589        H  0.02278468  0.26558135  0.48826572     0.12200
H590        H  0.99917229  0.31162798  0.47759478     0.11400
H591        H  0.98730940  0.34099258  0.45816479     0.16800
H592        H  0.99195483  0.27930551  0.42291036     0.12700
H593        H  0.06048935  0.15911163  0.45175721     0.15600
H594        H  0.05651867  0.22099116  0.48684404     0.15400
C595        C  0.95050821  0.70656249  0.47757265    -0.17500
C596        C  0.96562305  0.68143732  0.47167056    -0.19700
C597        C  0.97244047  0.68554274  0.45873418     0.21000
C598        C  0.96612587  0.71752900  0.45180279    -0.02600
C599        C  0.95112099  0.74322270  0.45778110    -0.05700
C600        C  0.94213174  0.73649389  0.47066530     0.21200
C601        C  0.94250745  0.77287659  0.45071405     0.19400
C602        C  0.95105414  0.77874039  0.43787440    -0.17200
C603        C  0.96608887  0.75352499  0.43197850    -0.19400
C604        C  0.97270245  0.72179437  0.43880113     0.20900
C605        C  0.98381535  0.69249098  0.43274950    -0.32400
C606        C  0.98784163  0.65810497  0.43945809     0.01600
C607        C  0.98352616  0.65641544  0.45255268    -0.23700
C608        C  0.92204188  0.75654978  0.47620982    -0.28300
C609        C  0.91080789  0.78326256  0.46904992     0.07300
C610        C  0.92266990  0.79295228  0.45641728    -0.27000
H611        H  0.94404160  0.70119596  0.48748205     0.12000
H612        H  0.97062018  0.65738025  0.47717164     0.13100
H613        H  0.94478766  0.80150937  0.43230264     0.12200
H614        H  0.97123261  0.75753912  0.42199800     0.11400
H615        H  0.98754572  0.69513916  0.42272803     0.16800
H616        H  0.98721975  0.63109487  0.45795929     0.12700
H617        H  0.91177623  0.74754675  0.48582684     0.15600
H618        H  0.91307615  0.81232913  0.45078684     0.15400
loop_ 
_geom_bond_atom_site_label_1 
_geom_bond_atom_site_label_2 
_geom_bond_distance 
_geom_bond_site_symmetry_2 
_ccdc_geom_bond_type 
N1            N2   1.322       .  A
N1            C5   1.348       .  A
N1           Cu9   2.095       .  S
N2            C3   1.347       .  A
N2           Cu8   2.087       .  S
C3            C4   1.392       .  A
C3            H6   1.081       .  S
C4            C5   1.393       .  A
C4          C606   1.499       .  S
C5            H7   1.081       .  S
Cu8          N11   2.086       .  S
Cu9          N19   2.095       .  S
Cu10         N12   2.078       .  S
Cu10         N18   2.078       .  S
N11          N12   1.321       .  A
N11          C15   1.347       .  A
N12          C13   1.345       .  A
C13          C14   1.390       .  A
C13          H16   1.081       .  S
C14          C15   1.391       .  A
C14         C582   1.493       .  S
C15          H17   1.081       .  S
N18          N19   1.321       .  A
N18          C22   1.347       .  A
N19          C20   1.347       .  A
C20          C21   1.393       .  A
C20          H23   1.081       .  S
C21          C22   1.390       .  A
C21         C558   1.496       .  S
C22          H24   1.081       .  S
N25          N26   1.322       .  A
N25          C29   1.348       .  A
N25         Cu33   2.094       .  S
N26          C27   1.344       .  A
N26         Cu32   2.074       .  S
C27          C28   1.388       .  A
C27          H30   1.081       .  S
C28          C29   1.392       .  A
C28         C513   1.493       .  S
C29          H31   1.081       .  S
Cu32         N35   2.073   1_565  S
Cu33         N43   2.093       .  S
Cu34         N36   2.074       .  S
Cu34         N42   2.074   1_545  S
N35          N36   1.320       .  A
N35          C39   1.345       .  A
N36          C37   1.343       .  A
C37          C38   1.390       .  A
C37          H40   1.081       .  S
C38          C39   1.389       .  A
C38         C534   1.489       .  S
C39          H41   1.081       .  S
N42          N43   1.321       .  A
N42          C46   1.345   1_565  A
N43          C44   1.348       .  A
C44          C45   1.392       .  A
C44          H47   1.081       .  S
C45          C46   1.389   1_565  A
C45         C486   1.493       .  S
C46          H48   1.081       .  S
N49          N50   1.321       .  A
N49          C53   1.346       .  A
N49         Cu57   2.081       .  S
N50          C51   1.346       .  A
N50         Cu56   2.083   1_655  S
C51          C52   1.392       .  A
C51          H54   1.080       .  S
C52          C53   1.391       .  A
C52         C462   1.495       .  S
C53          H55   1.081       .  S
Cu56         N59   2.082       .  S
Cu57         N67   2.081       .  S
Cu58         N60   2.082       .  S
Cu58         N66   2.083       .  S
N59          N60   1.321       .  A
N59          C63   1.345       .  A
N60          C61   1.347       .  A
C61          C62   1.391       .  A
C61          H64   1.081       .  S
C62          C63   1.390       .  A
C62         C441   1.493       .  S
C63          H65   1.080       .  S
N66          N67   1.322   1_455  A
N66          C70   1.346       .  A
N67          C68   1.346       .  A
C68          C69   1.389       .  A
C68          H71   1.082       .  S
C69          C70   1.390   1_655  A
C69         C561   1.490       .  S
C70          H72   1.082       .  S
N73          C77   1.368   1_545  A
N73          C74   1.359       .  A
N73         C465   1.443       .  S
C74          C75   1.374   1_545  A
C74         C537   1.472       .  S
C75          C76   1.365       .  A
C75          H78   1.082       .  S
C76          C77   1.391       .  A
C76          H79   1.081       .  S
C77         C414   1.496       .  S
N80          C84   1.364   1_565  A
N80          C81   1.358       .  A
N80         C438   1.440       .  S
C81          C82   1.376   1_565  A
C81         C510   1.475       .  S
C82          C83   1.370       .  A
C82          H85   1.082       .  S
C83          C84   1.390       .  A
C83          H86   1.082       .  S
C84         C417   1.495       .  S
N87          N88   1.321       .  A
N87          C91   1.345       .  A
N87         Cu95   2.078       .  S
N88          C89   1.346       .  A
N88         Cu94   2.083       .  S
C89          C90   1.391       .  A
C89          H92   1.081       .  S
C90          C91   1.390       .  A
C90         C369   1.493       .  S
C91          H93   1.081       .  S
Cu94         N97   2.083   1_545  S
Cu95        N105   2.078       .  S
Cu96         N98   2.080       .  S
Cu96        N104   2.080       .  S
N97          N98   1.321       .  A
N97         C101   1.347       .  A
N98          C99   1.344       .  A
C99         C100   1.390       .  A
C99         H102   1.081       .  S
C100        C101   1.391       .  A
C100        C393   1.493       .  S
C101        H103   1.081       .  S
N104        N105   1.322   1_565  A
N104        C108   1.346       .  A
N105        C106   1.345       .  A
C106        C107   1.387       .  A
C106        H109   1.082       .  S
C107        C108   1.387   1_545  A
C107        C489   1.485       .  S
C108        H110   1.082       .  S
N111        C115   1.360       .  A
N111        C112   1.368       .  A
N111        C321   1.444       .  S
C112        C113   1.390   1_565  A
C112        C342   1.497       .  S
C113        C114   1.367       .  A
C113        H116   1.082       .  S
C114        C115   1.375   1_545  A
C114        H117   1.082       .  S
C115        C390   1.476       .  S
N118        C122   1.359       .  A
N118        C119   1.367   1_545  A
N118        C294   1.442       .  S
C119        C120   1.391       .  A
C119        C345   1.498       .  S
C120        C121   1.367       .  A
C120        H123   1.081       .  S
C121        C122   1.374   1_565  A
C121        H124   1.082       .  S
C122        C366   1.474       .  S
N125        N126   1.323       .  A
N125        C129   1.349       .  A
N125       Cu133   2.094       .  S
N126        C127   1.346       .  A
N126       Cu132   2.092       .  S
C127        C128   1.392       .  A
C127        H130   1.081       .  S
C128        C129   1.392       .  A
C128        C318   1.499       .  S
C129        H131   1.081       .  S
Cu132       N135   2.091       .  S
Cu133       N143   2.094       .  S
Cu134       N136   2.068       .  S
Cu134       N142   2.068       .  S
N135        N136   1.321       .  A
N135        C139   1.348       .  A
N136        C137   1.344       .  A
C137        C138   1.387       .  A
C137        H140   1.081       .  S
C138        C139   1.393       .  A
C138        C297   1.492       .  S
C139        H141   1.081       .  S
N142        N143   1.321       .  A
N142        C146   1.345       .  A
N143        C144   1.347       .  A
C144        C145   1.394       .  A
C144        H147   1.081       .  S
C145        C146   1.388       .  A
C145        C270   1.494       .  S
C146        H148   1.080       .  S
N149        N150   1.320       .  A
N149        C153   1.354       .  A
N149       Cu157   2.104       .  S
N150        C151   1.344       .  A
N150       Cu156   2.074       .  S
C151        C152   1.387       .  A
C151        H154   1.082       .  S
C152        C153   1.394       .  A
C152        C249   1.495       .  S
C153        H155   1.081       .  S
Cu156       N159   2.074       .  S
Cu157       N167   2.105       .  S
Cu158       N160   2.080       .  S
Cu158       N166   2.082       .  S
N159        N160   1.322       .  A
N159        C163   1.341       .  A
N160        C161   1.350       .  A
C161        C162   1.387       .  A
C161        H164   1.082       .  S
C162        C163   1.383       .  A
C162        C225   1.479       .  S
C163        H165   1.082       .  S
N166        N167   1.325       .  A
N166        C170   1.348       .  A
N167        C168   1.345       .  A
C168        C169   1.392       .  A
C168        H171   1.080       .  S
C169        C170   1.388       .  A
C169        C273   1.495       .  S
C170        H172   1.082       .  S
N173        C177   1.363       .  A
N173        C174   1.362       .  A
N173        C198   1.449       .  S
C174        C175   1.382       .  A
C174        C222   1.477       .  S
C175        C176   1.365       .  A
C175        H178   1.082       .  S
C176        C177   1.380       .  A
C176        H179   1.083       .  S
C177        C585   1.474       .  S
N180        C184   1.371       .  A
N180        C181   1.370       .  A
N180        C201   1.456       .  S
C181        C182   1.384       .  A
C181        C246   1.495       .  S
C182        C183   1.363       .  A
C182        H185   1.082       .  S
C183        C184   1.379       .  A
C183        H186   1.082       .  S
C184        C609   1.486       .  S
C187        C188   1.401   1_565  A
C187        C192   1.405       .  A
C187        H203   1.083       .  S
C188        C189   1.403       .  A
C188        H204   1.084       .  S
C189        C199   1.407   1_655  A
C189        C190   1.412   1_655  A
C190        C196   1.410       .  A
C190        C191   1.416   1_445  A
C191        C193   1.411       .  A
C191        C192   1.409       .  A
C192        C200   1.406       .  A
C193        C202   1.407       .  A
C193        C194   1.405   1_655  A
C194        C195   1.401       .  A
C194        H205   1.084       .  S
C195        C196   1.405   1_565  A
C195        H206   1.083   1_565  S
C196        C197   1.405       .  A
C197        C198   1.411       .  A
C197        H207   1.083       .  S
C198        C199   1.407       .  A
C199        H208   1.081       .  S
C200        C201   1.413       .  A
C200        H209   1.082       .  S
C201        C202   1.411       .  A
C202        H210   1.078       .  S
C211        C212   1.402       .  A
C211        C216   1.405       .  A
C211        H227   1.083       .  S
C212        C213   1.404       .  A
C212        H228   1.084       .  S
C213        C223   1.407       .  A
C213        C214   1.413       .  A
C214        C220   1.411       .  A
C214        C215   1.413       .  A
C215        C217   1.411       .  A
C215        C216   1.413       .  A
C216        C224   1.408       .  A
C217        C226   1.399       .  A
C217        C218   1.402       .  A
C218        C219   1.397       .  A
C218        H229   1.084       .  S
C219        C220   1.403       .  A
C219        H230   1.084       .  S
C220        C221   1.399       .  A
C221        C222   1.404       .  A
C221        H231   1.085       .  S
C222        C223   1.405       .  A
C223        H232   1.084       .  S
C224        C225   1.407       .  A
C224        H233   1.083       .  S
C225        C226   1.404       .  A
C226        H234   1.085       .  S
C235        C236   1.405       .  A
C235        C240   1.406       .  A
C235        H251   1.083       .  S
C236        C237   1.405       .  A
C236        H252   1.084       .  S
C237        C247   1.415       .  A
C237        C238   1.414       .  A
C238        C244   1.409       .  A
C238        C239   1.418       .  A
C239        C241   1.411       .  A
C239        C240   1.411       .  A
C240        C248   1.413       .  A
C241        C250   1.405       .  A
C241        C242   1.404       .  A
C242        C243   1.399       .  A
C242        H253   1.083       .  S
C243        C244   1.404       .  A
C243        H254   1.083       .  S
C244        C245   1.402       .  A
C245        C246   1.410       .  A
C245        H255   1.084       .  S
C246        C247   1.409       .  A
C247        H256   1.084       .  S
C248        C249   1.411       .  A
C248        H257   1.083       .  S
C249        C250   1.409       .  A
C250        H258   1.083       .  S
C259        C260   1.403       .  A
C259        C264   1.406       .  A
C259        H275   1.084       .  S
C260        C261   1.406       .  A
C260        H276   1.082       .  S
C261        C271   1.409       .  A
C261        C262   1.409       .  A
C262        C268   1.411       .  A
C262        C263   1.415       .  A
C263        C265   1.409       .  A
C263        C264   1.412       .  A
C264        C272   1.411       .  A
C265        C274   1.400       .  A
C265        C266   1.403       .  A
C266        C267   1.397       .  A
C266        H277   1.083       .  S
C267        C268   1.402       .  A
C267        H278   1.084       .  S
C268        C269   1.402       .  A
C269        C270   1.407       .  A
C269        H279   1.082       .  S
C270        C271   1.414       .  A
C271        H280   1.081       .  S
C272        C273   1.413       .  A
C272        H281   1.083       .  S
C273        C274   1.408       .  A
C274        H282   1.081       .  S
C283        C284   1.401       .  A
C283        C288   1.405       .  A
C283        H299   1.084       .  S
C284        C285   1.404       .  A
C284        H300   1.084       .  S
C285        C295   1.408       .  A
C285        C286   1.413       .  A
C286        C292   1.411       .  A
C286        C287   1.414       .  A
C287        C289   1.411       .  A
C287        C288   1.410       .  A
C288        C296   1.406       .  A
C289        C298   1.405       .  A
C289        C290   1.404       .  A
C290        C291   1.399       .  A
C290        H301   1.083       .  S
C291        C292   1.403       .  A
C291        H302   1.084       .  S
C292        C293   1.403       .  A
C293        C294   1.406       .  A
C293        H303   1.084       .  S
C294        C295   1.405       .  A
C295        H304   1.084       .  S
C296        C297   1.411       .  A
C296        H305   1.082       .  S
C297        C298   1.408       .  A
C298        H306   1.082       .  S
C307        C308   1.403       .  A
C307        C312   1.405       .  A
C307        H323   1.083       .  S
C308        C309   1.406       .  A
C308        H324   1.084       .  S
C309        C319   1.410       .  A
C309        C310   1.411       .  A
C310        C316   1.410       .  A
C310        C311   1.416       .  A
C311        C313   1.411       .  A
C311        C312   1.413       .  A
C312        C320   1.410       .  A
C313        C322   1.402       .  A
C313        C314   1.403       .  A
C314        C315   1.399       .  A
C314        H325   1.084       .  S
C315        C316   1.404       .  A
C315        H326   1.082       .  S
C316        C317   1.405       .  A
C317        C318   1.411       .  A
C317        H327   1.080       .  S
C318        C319   1.412       .  A
C319        H328   1.083       .  S
C320        C321   1.407       .  A
C320        H329   1.084       .  S
C321        C322   1.405       .  A
C322        H330   1.084       .  S
C331        C332   1.401       .  A
C331        C336   1.404       .  A
C331        H347   1.083       .  S
C332        C333   1.406   1_455  A
C332        H348   1.084       .  S
C333        C343   1.402       .  A
C333        C334   1.406   1_545  A
C334        C340   1.414       .  A
C334        C335   1.414   1_655  A
C335        C337   1.406       .  A
C335        C336   1.414   1_565  A
C336        C344   1.410       .  A
C337        C346   1.400       .  A
C337        C338   1.405   1_455  A
C338        C339   1.400       .  A
C338        H349   1.083       .  S
C339        C340   1.403       .  A
C339        H350   1.084       .  S
C340        C341   1.408       .  A
C341        C342   1.407       .  A
C341        H351   1.082       .  S
C342        C343   1.414   1_565  A
C343        H352   1.083       .  S
C344        C345   1.409   1_545  A
C344        H353   1.080       .  S
C345        C346   1.413       .  A
C346        H354   1.083       .  S
C355        C356   1.400       .  A
C355        C360   1.405       .  A
C355        H371   1.083       .  S
C356        C357   1.403       .  A
C356        H372   1.084       .  S
C357        C367   1.406       .  A
C357        C358   1.413       .  A
C358        C364   1.411       .  A
C358        C359   1.413       .  A
C359        C361   1.411       .  A
C359        C360   1.410       .  A
C360        C368   1.406       .  A
C361        C370   1.403       .  A
C361        C362   1.404       .  A
C362        C363   1.398       .  A
C362        H373   1.083       .  S
C363        C364   1.403       .  A
C363        H374   1.084       .  S
C364        C365   1.401       .  A
C365        C366   1.403       .  A
C365        H375   1.085       .  S
C366        C367   1.403       .  A
C367        H376   1.085       .  S
C368        C369   1.411       .  A
C368        H377   1.082       .  S
C369        C370   1.410       .  A
C370        H378   1.081       .  S
C379        C380   1.401       .  A
C379        C384   1.405       .  A
C379        H395   1.083       .  S
C380        C381   1.404       .  A
C380        H396   1.084       .  S
C381        C391   1.408       .  A
C381        C382   1.413       .  A
C382        C388   1.411       .  A
C382        C383   1.413       .  A
C383        C385   1.411       .  A
C383        C384   1.410       .  A
C384        C392   1.407       .  A
C385        C394   1.402       .  A
C385        C386   1.404       .  A
C386        C387   1.398       .  A
C386        H397   1.084       .  S
C387        C388   1.403       .  A
C387        H398   1.084       .  S
C388        C389   1.401       .  A
C389        C390   1.403       .  A
C389        H399   1.085       .  S
C390        C391   1.404       .  A
C391        H400   1.084       .  S
C392        C393   1.411       .  A
C392        H401   1.082       .  S
C393        C394   1.409       .  A
C394        H402   1.081       .  S
C403        C404   1.399       .  A
C403        C408   1.403   1_655  A
C403        H419   1.083       .  S
C404        C405   1.405       .  A
C404        H420   1.084       .  S
C405        C415   1.399       .  A
C405        C406   1.406   1_655  A
C406        C412   1.414   1_565  A
C406        C407   1.414       .  A
C407        C409   1.407   1_565  A
C407        C408   1.413       .  A
C408        C416   1.407       .  A
C409        C418   1.402       .  A
C409        C410   1.405       .  A
C410        C411   1.401       .  A
C410        H421   1.084       .  S
C411        C412   1.403       .  A
C411        H422   1.083       .  S
C412        C413   1.410   1_455  A
C413        C414   1.408   1_545  A
C413        H423   1.081       .  S
C414        C415   1.413       .  A
C415        H424   1.084       .  S
C416        C417   1.408   1_565  A
C416        H425   1.081       .  S
C417        C418   1.412       .  A
C418        H426   1.083       .  S
C427        C428   1.399       .  A
C427        C432   1.404       .  A
C427        H443   1.083       .  S
C428        C429   1.403       .  A
C428        H444   1.084       .  S
C429        C439   1.402       .  A
C429        C430   1.412       .  A
C430        C436   1.412       .  A
C430        C431   1.413       .  A
C431        C433   1.411       .  A
C431        C432   1.410       .  A
C432        C440   1.403       .  A
C433        C442   1.406       .  A
C433        C434   1.405       .  A
C434        C435   1.401       .  A
C434        H445   1.083       .  S
C435        C436   1.404       .  A
C435        H446   1.084       .  S
C436        C437   1.405       .  A
C437        C438   1.405       .  A
C437        H447   1.084       .  S
C438        C439   1.405       .  A
C439        H448   1.083       .  S
C440        C441   1.410       .  A
C440        H449   1.081       .  S
C441        C442   1.411       .  A
C442        H450   1.082       .  S
C451        C452   1.402       .  A
C451        C456   1.404       .  A
C451        H467   1.084       .  S
C452        C453   1.405       .  A
C452        H468   1.083       .  S
C453        C463   1.407       .  A
C453        C454   1.410       .  A
C454        C460   1.411       .  A
C454        C455   1.415       .  A
C455        C457   1.411       .  A
C455        C456   1.413       .  A
C456        C464   1.409       .  A
C457        C466   1.403       .  A
C457        C458   1.403       .  A
C458        C459   1.399       .  A
C458        H469   1.084       .  S
C459        C460   1.404       .  A
C459        H470   1.083       .  S
C460        C461   1.405       .  A
C461        C462   1.410       .  A
C461        H471   1.082       .  S
C462        C463   1.411       .  A
C463        H472   1.082       .  S
C464        C465   1.405       .  A
C464        H473   1.084       .  S
C465        C466   1.406       .  A
C466        H474   1.084       .  S
C475        C476   1.400   1_545  A
C475        C480   1.404   1_545  A
C475        H491   1.084       .  S
C476        C477   1.404   1_556  A
C476        H492   1.084   1_566  S
C477        C487   1.405       .  A
C477        C478   1.410   1_554  A
C478        C484   1.411   1_556  A
C478        C479   1.414       .  A
C479        C481   1.411       .  A
C479        C480   1.412       .  A
C480        C488   1.405   1_565  A
C481        C490   1.404   1_565  A
C481        C482   1.404       .  A
C482        C483   1.400       .  A
C482        H493   1.083       .  S
C483        C484   1.404   1_556  A
C483        H494   1.084   1_556  S
C484        C485   1.406       .  A
C485        C486   1.409       .  A
C485        H495   1.083       .  S
C486        C487   1.411       .  A
C487        H496   1.082       .  S
C488        C489   1.408       .  A
C488        H497   1.084       .  S
C489        C490   1.408       .  A
C490        H498   1.083       .  S
C499        C500   1.400       .  A
C499        C504   1.404       .  A
C499        H515   1.083       .  S
C500        C501   1.404       .  A
C500        H516   1.084       .  S
C501        C511   1.403       .  A
C501        C502   1.411       .  A
C502        C508   1.413       .  A
C502        C503   1.414       .  A
C503        C505   1.410       .  A
C503        C504   1.411       .  A
C504        C512   1.406       .  A
C505        C514   1.404       .  A
C505        C506   1.404       .  A
C506        C507   1.400       .  A
C506        H517   1.083       .  S
C507        C508   1.403       .  A
C507        H518   1.084       .  S
C508        C509   1.405       .  A
C509        C510   1.402       .  A
C509        H519   1.084       .  S
C510        C511   1.404       .  A
C511        H520   1.085       .  S
C512        C513   1.409       .  A
C512        H521   1.082       .  S
C513        C514   1.410       .  A
C514        H522   1.082       .  S
C523        C524   1.400       .  A
C523        C528   1.403       .  A
C523        H539   1.084       .  S
C524        C525   1.405       .  A
C524        H540   1.083       .  S
C525        C535   1.404       .  A
C525        C526   1.410       .  A
C526        C532   1.411       .  A
C526        C527   1.412       .  A
C527        C529   1.411       .  A
C527        C528   1.413       .  A
C528        C536   1.405       .  A
C529        C538   1.399       .  A
C529        C530   1.402       .  A
C530        C531   1.397       .  A
C530        H541   1.084       .  S
C531        C532   1.403       .  A
C531        H542   1.084       .  S
C532        C533   1.401       .  A
C533        C534   1.408       .  A
C533        H543   1.082       .  S
C534        C535   1.410       .  A
C535        H544   1.082       .  S
C536        C537   1.403       .  A
C536        H545   1.084       .  S
C537        C538   1.402       .  A
C538        H546   1.085       .  S
C547        C548   1.402       .  A
C547        C552   1.405       .  A
C547        H563   1.084       .  S
C548        C549   1.405       .  A
C548        H564   1.083       .  S
C549        C559   1.408       .  A
C549        C550   1.410       .  A
C550        C556   1.410       .  A
C550        C551   1.415       .  A
C551        C553   1.411       .  A
C551        C552   1.411       .  A
C552        C560   1.407       .  A
C553        C562   1.404       .  A
C553        C554   1.403       .  A
C554        C555   1.399       .  A
C554        H565   1.084       .  S
C555        C556   1.404       .  A
C555        H566   1.083       .  S
C556        C557   1.404       .  A
C557        C558   1.409       .  A
C557        H567   1.082       .  S
C558        C559   1.412       .  A
C559        H568   1.082       .  S
C560        C561   1.410       .  A
C560        H569   1.083       .  S
C561        C562   1.408       .  A
C562        H570   1.083       .  S
C571        C572   1.399       .  A
C571        C576   1.403       .  A
C571        H587   1.083       .  S
C572        C573   1.404       .  A
C572        H588   1.084       .  S
C573        C583   1.404   1_455  A
C573        C574   1.410       .  A
C574        C580   1.411       .  A
C574        C575   1.413       .  A
C575        C577   1.412       .  A
C575        C576   1.412       .  A
C576        C584   1.403       .  A
C577        C586   1.404       .  A
C577        C578   1.404       .  A
C578        C579   1.400       .  A
C578        H589   1.084       .  S
C579        C580   1.404       .  A
C579        H590   1.083   1_455  S
C580        C581   1.405   1_455  A
C581        C582   1.410       .  A
C581        H591   1.082       .  S
C582        C583   1.410       .  A
C583        H592   1.082       .  S
C584        C585   1.404       .  A
C584        H593   1.084       .  S
C585        C586   1.405       .  A
C586        H594   1.085       .  S
C595        C596   1.401       .  A
C595        C600   1.404       .  A
C595        H611   1.083       .  S
C596        C597   1.405       .  A
C596        H612   1.083       .  S
C597        C607   1.408       .  A
C597        C598   1.411       .  A
C598        C604   1.410       .  A
C598        C599   1.417       .  A
C599        C601   1.412       .  A
C599        C600   1.412       .  A
C600        C608   1.407       .  A
C601        C610   1.407       .  A
C601        C602   1.404       .  A
C602        C603   1.401       .  A
C602        H613   1.084       .  S
C603        C604   1.405       .  A
C603        H614   1.083       .  S
C604        C605   1.407       .  A
C605        C606   1.411       .  A
C605        H615   1.082       .  S
C606        C607   1.412       .  A
C607        H616   1.082       .  S
C608        C609   1.407       .  A
C608        H617   1.084       .  S
C609        C610   1.408       .  A
C610        H618   1.085       .  S
