geometry optimzed in LAMMPS
_audit_creation_date              2020-11-30 
_audit_creation_method            'lammps2cif' 
_symmetry_space_group_name_H-M    'P1' 
_symmetry_Int_Tables_number       1 
_symmetry_cell_setting            triclinic 
loop_ 
_symmetry_equiv_pos_as_xyz 
  x,y,z 
_cell_length_a                    24.13447944 
_cell_length_b                    23.389141611267306 
_cell_length_c                    23.67447622114181 
_cell_angle_alpha                 88.22852771928947 
_cell_angle_beta                  88.39805354140732 
_cell_angle_gamma                 90.18563564019091 
loop_ 
_atom_site_label 
_atom_site_type_symbol 
_atom_site_fract_x 
_atom_site_fract_y 
_atom_site_fract_z 
_atom_site_charge 
O1          O  0.71066880  0.62626240  0.74460412    -0.80600
O2          O  0.69817671  0.89040374  0.72331523    -0.65300
O3          O  0.75057744  0.73693921  0.71985920    -1.11900
C4          C  0.79166285  0.76481439  0.91414390     1.06200
O5          O  0.76447496  0.92487745  0.77697293    -0.78500
O6          O  0.84883361  0.84339840  0.79381521    -0.66100
Ni7        Ni  0.71368110  0.67922928  0.67900829     1.34900
C8          C  0.86928943  0.79433557  0.78244610     0.85000
O9          O  0.71811663  0.81713215  0.63641599    -0.79100
O10         O  0.71883527  0.72601212  0.60819542    -0.89400
C11         C  0.72404218  0.93239544  0.74400855     0.84600
O12         O  0.63723511  0.70233048  0.69227650    -0.67600
O13         O  0.79788112  0.81688984  0.89827958    -0.86800
C14         C  0.61376146  0.74805609  0.70867302     0.85400
C15         C  0.72086878  0.78011234  0.59702251     1.07000
H16         H  0.69805803  0.80664070  0.81986205     0.38800
O17         O  0.73370417  0.80673860  0.80018649    -1.09500
O18         O  0.84041263  0.74830963  0.78757472    -0.66200
Ni19       Ni  0.76141532  0.72938940  0.80046736     1.26300
O20         O  0.64220864  0.79069656  0.72592396    -0.66400
O21         O  0.77243333  0.72660921  0.88179660    -0.78700
C22         C  0.75356874  0.61122585  0.77200745     0.84800
O23         O  0.78300084  0.64921881  0.79540929    -0.65900
Ni24       Ni  0.78009788  0.86470499  0.83329578     1.27400
Ni25       Ni  0.72226048  0.81254139  0.71925772     1.26100
H26         H  0.78688353  0.73984994  0.70174491     0.39300
O27         O  0.11063630  0.83119186  0.74498710    -0.80600
O28         O  0.36065588  0.78837771  0.70582987    -0.65300
O29         O  0.20187815  0.76850540  0.70813284    -1.11900
C30         C  0.22147871  0.72525063  0.90321764     1.06200
O31         O  0.38123014  0.71454756  0.76302371    -0.78500
O32         O  0.28642670  0.64291839  0.79586267    -0.66100
Ni33       Ni  0.15589492  0.82757485  0.67765851     1.34900
C34         C  0.23534466  0.63111479  0.78750396     0.85000
O35         O  0.28349252  0.78976414  0.62307060    -0.79100
O36         O  0.19788430  0.82459456  0.60786080    -0.89400
C37         C  0.39628470  0.75322639  0.72570173     0.84600
O38         O  0.19334694  0.89554671  0.70066255    -0.67600
O39         O  0.27147738  0.71156727  0.88973617    -0.86800
C40         C  0.24403746  0.90536181  0.70863019     0.85400
C41         C  0.24520439  0.80708088  0.59007712     1.07000
H42         H  0.27811891  0.80422463  0.80403275     0.38800
O43         O  0.27228203  0.76822083  0.78612821    -1.09500
O44         O  0.19844374  0.67034662  0.78113470    -0.66200
Ni45       Ni  0.19225132  0.75385790  0.78734251     1.26300
O46         O  0.27956288  0.86474520  0.71211800    -0.66400
O47         O  0.18610948  0.74262078  0.86753593    -0.78700
C48         C  0.08252080  0.78743118  0.76018885     0.84800
O49         O  0.10985701  0.74522638  0.78154702    -0.65900
Ni50       Ni  0.32060251  0.71327115  0.82247451     1.27400
Ni51       Ni  0.28054541  0.78079810  0.70543566     1.26100
H52         H  0.19410646  0.73377441  0.68868198     0.39300
C53         C  0.74390543  0.79457784  0.43570217     0.80500
N54         N  0.72812496  0.77002612  0.48799273    -0.77800
C55         C  0.73069246  0.80289454  0.53632424     0.82900
N56         N  0.74450733  0.85963624  0.52990368    -0.77800
C57         C  0.75849018  0.88263320  0.47809301     0.83000
N58         N  0.75989623  0.84943898  0.43346982    -0.79500
C59         C  0.02333392  0.78484407  0.73925729     0.80500
N60         N  0.01767009  0.79774482  0.68294067    -0.77800
C61         C  0.96706257  0.80580583  0.66017011     0.82900
N62         N  0.92137941  0.80318558  0.69438678    -0.77800
C63         C  0.92420115  0.79189564  0.75053991     0.83000
N64         N  0.97584730  0.78327556  0.77391667    -0.79500
C65         C  0.10256623  0.81153023  0.22551940     0.80500
N66         N  0.09404247  0.86677726  0.20746526    -0.77800
C67         C  0.04305362  0.88736049  0.19734777     0.82900
N68         N  0.99917592  0.85280578  0.20749627    -0.77800
C69         C  0.00368431  0.79784916  0.22657834     0.83000
N70         N  0.05655334  0.77571874  0.23508167    -0.79500
O71         O  0.97832118  0.06404113  0.30231425    -0.74200
O72         O  0.96357682  0.98034623  0.44412250    -0.74200
O73         O  0.03628497  0.98374453  0.35694435    -0.74300
O74         O  0.90358445  0.06241323  0.39163723    -0.74300
O75         O  0.85722471  0.99171280  0.35256490    -0.74200
O76         O  0.98998067  0.91407861  0.31652461    -0.74200
O77         O  0.91895473  0.90962618  0.40385708    -0.74200
O78         O  0.92911871  0.99528189  0.26377826    -0.74300
Ni79       Ni  0.97176084  0.02556255  0.37488793     1.25400
Ni80       Ni  0.92162629  0.95087994  0.33223426     1.25400
C81         C  0.96043829  0.03966743  0.25862404     0.88000
C82         C  0.94202406  0.93008953  0.44689649     0.87900
C83         C  0.03467136  0.93458813  0.33526281     0.88000
C84         C  0.85839203  0.03622884  0.38269014     0.88100
C85         C  0.29999062  0.79441562  0.44061548     0.80500
N86         N  0.25442788  0.81006144  0.41328290    -0.77800
C87         C  0.20760241  0.82278701  0.44076329     0.82900
N88         N  0.20605262  0.82217992  0.49776698    -0.77800
C89         C  0.25157771  0.80661020  0.52744770     0.83000
N90         N  0.29953768  0.79205283  0.49865033    -0.79500
O91         O  0.30846619  0.62327241  0.29615749    -0.80600
O92         O  0.34820582  0.88570217  0.26131526    -0.65300
O93         O  0.29219326  0.73710281  0.30849033    -1.11900
C94         C  0.24753936  0.74138585  0.11087434     1.06200
O95         O  0.26281168  0.88903105  0.23387654    -0.78500
O96         O  0.18980341  0.82290516  0.18251093    -0.66100
Ni97       Ni  0.33658287  0.68010131  0.34532612     1.34900
C98         C  0.16332753  0.79424906  0.22073263     0.85000
O99         O  0.35246553  0.82218001  0.36193828    -0.79100
O100        O  0.36541814  0.73452096  0.39739229    -0.89400
C101        C  0.30803005  0.91445874  0.24062191     0.84600
O102        O  0.40267872  0.68839836  0.29834821    -0.67600
O103        O  0.26892815  0.79139846  0.10846831    -0.86800
C104        C  0.42481567  0.73156086  0.27247896     0.85400
C105        C  0.34737207  0.78518811  0.40272936     1.07000
H106        H  0.33407786  0.77640968  0.19160401     0.38800
O107        O  0.30210658  0.78817365  0.21377286    -1.09500
O108        O  0.18917384  0.75853609  0.25289304    -0.66200
Ni109      Ni  0.26253094  0.72196056  0.23504254     1.26300
O110        O  0.40031383  0.77984547  0.26690841    -0.66400
O111        O  0.23898374  0.71150900  0.15751937    -0.78700
C112        C  0.25673588  0.61574040  0.28963547     0.84800
O113        O  0.22824204  0.65269417  0.26275978    -0.65900
Ni114      Ni  0.26601126  0.84242233  0.16984741     1.27400
Ni115      Ni  0.32667219  0.80865575  0.28711241     1.26100
H116        H  0.26065001  0.74396798  0.33322396     0.39300
O117        O  0.85959599  0.63078264  0.29444716    -0.80600
O118        O  0.81843820  0.87204204  0.20382226    -0.65300
O119        O  0.82948604  0.72500401  0.26258965    -1.11900
C120        C  0.63196938  0.73689606  0.26425190     1.06200
O121        O  0.76433202  0.89488562  0.27729595    -0.78500
O122        O  0.70751128  0.81595626  0.34861844    -0.66100
Ni123      Ni  0.87245584  0.67156582  0.22436633     1.34900
C124        C  0.73139042  0.77633185  0.37683030     0.85000
O125        O  0.90622176  0.80152223  0.22171557    -0.79100
O126        O  0.94030009  0.71381512  0.24420888    -0.89400
C127        C  0.79638091  0.90914867  0.23507117     0.84600
O128        O  0.88069813  0.70724466  0.15013070    -0.67600
O129        O  0.63966620  0.79113132  0.26352354    -0.86800
C130        C  0.84972115  0.74150198  0.12286965     0.85400
C131        C  0.94757832  0.76787443  0.23236418     1.07000
H132        H  0.73247605  0.77961091  0.20177314     0.38800
O133        O  0.74747580  0.78449717  0.23872047    -1.09500
O134        O  0.75306675  0.73300451  0.35270701    -0.66200
Ni135      Ni  0.75187143  0.70983361  0.27242793     1.26300
O136        O  0.81854391  0.77558885  0.14955570    -0.66400
O137        O  0.67054387  0.69978249  0.27451522    -0.78700
C138        C  0.81262897  0.60507652  0.30189667     0.84800
O139        O  0.76538826  0.63096035  0.29831648    -0.65900
Ni140      Ni  0.70259262  0.84070600  0.27136136     1.27400
Ni141      Ni  0.82568503  0.79641519  0.22923341     1.26100
H142        H  0.84484094  0.73084101  0.29925979     0.39300
C143        C  0.82312291  0.74454493  0.96390766     0.80500
N144        N  0.86414321  0.70910296  0.94907363    -0.77800
C145        C  0.90025672  0.68880539  0.98634786     0.82900
N146        N  0.89473604  0.70329777  0.04077717    -0.77800
C147        C  0.85381822  0.73820999  0.05912928     0.83000
N148        N  0.81703064  0.76034205  0.01995842    -0.79500
C149        C  0.77173715  0.54957111  0.77252552     0.80500
N150        N  0.81973150  0.53603628  0.74328993    -0.77800
C151        C  0.83543283  0.48028680  0.73892725     0.82900
N152        N  0.80523496  0.43954774  0.76672943    -0.77800
C153        C  0.75895744  0.45061938  0.79716037     0.83000
N154        N  0.74060384  0.50621400  0.79925143    -0.79500
C155        C  0.72957957  0.26908530  0.00955155     0.80500
N156        N  0.71219125  0.29099244  0.06075003    -0.77800
C157        C  0.73285194  0.26644402  0.11039091     0.82900
N158        N  0.76810497  0.22133238  0.10764651    -0.77800
C159        C  0.78078018  0.19764533  0.05805037     0.83000
N160        N  0.76134672  0.22215957  0.01065117    -0.79500
O161        O  0.86573820  0.38163126  0.99572339    -0.74200
O162        O  0.90072883  0.36368980  0.84109350    -0.74200
O163        O  0.87091863  0.29063262  0.93377290    -0.74300
O164        O  0.89747953  0.45104340  0.90963453    -0.74300
O165        O  0.98541994  0.43631914  0.93266697    -0.74200
O166        O  0.96068261  0.27611724  0.94729001    -0.74200
O167        O  0.99041105  0.35386022  0.85808986    -0.74200
O168        O  0.95374552  0.36425035  0.01701087    -0.74300
Ni169      Ni  0.88057647  0.37132998  0.91854693     1.25400
Ni170      Ni  0.97585329  0.35629142  0.93890430     1.25400
C171        C  0.90414334  0.37851736  0.03131139     0.88000
C172        C  0.95120232  0.36364915  0.82359517     0.87900
C173        C  0.91062126  0.25807075  0.94931458     0.88000
C174        C  0.94555655  0.46969109  0.92156240     0.88100
C175        C  0.81412247  0.54289771  0.29765197     0.80500
N176        N  0.85177592  0.52251928  0.25952316    -0.77800
C177        C  0.85039345  0.46723011  0.24483870     0.82900
N178        N  0.81110446  0.43275846  0.26755604    -0.77800
C179        C  0.77270149  0.45202160  0.30412984     0.83000
N180        N  0.77281814  0.50781590  0.31928059    -0.79500
O181        O  0.74542289  0.37879018  0.36548107    -0.80600
O182        O  0.79519665  0.13785182  0.29598194    -0.65300
O183        O  0.78537977  0.29996905  0.30138554    -1.11900
C184        C  0.59216724  0.26498663  0.25732978     1.06200
O185        O  0.74028118  0.14476257  0.22232914    -0.78500
O186        O  0.67527857  0.22860678  0.18112251    -0.65900
Ni187      Ni  0.81664358  0.34300216  0.35877094     1.34900
C188        C  0.70716672  0.27033767  0.16766556     0.85000
O189        O  0.87320701  0.22173857  0.30951744    -0.79100
O190        O  0.88951195  0.30583436  0.35100221    -0.89400
C191        C  0.77696743  0.11829267  0.25035622     0.84600
O192        O  0.79593125  0.29453694  0.42213053    -0.67600
O193        O  0.60379168  0.21315933  0.26986371    -0.86800
C194        C  0.78625328  0.24135659  0.42783545     0.85400
C195        C  0.90648872  0.25821213  0.33068966     1.07000
H196        H  0.69539064  0.21539462  0.33483631     0.38800
O197        O  0.71150481  0.22427895  0.29776192    -1.09500
O198        O  0.72669405  0.30284349  0.20504635    -0.66200
Ni199      Ni  0.70578606  0.30457502  0.28599504     1.26300
O200        O  0.78470015  0.20812207  0.38583473    -0.66400
O201        O  0.62718733  0.30562974  0.26433572    -0.78700
C202        C  0.73251526  0.40970401  0.32306541     0.84800
O203        O  0.70580869  0.38655292  0.28398449    -0.65900
Ni204      Ni  0.67280834  0.17910017  0.24767801     1.27400
Ni205      Ni  0.79214596  0.21984168  0.30351352     1.26100
H206        H  0.80514845  0.31286460  0.26730252     0.39300
O207        O  0.85599811  0.20709253  0.77064287    -0.80600
O208        O  0.61347787  0.25393766  0.74265363    -0.65300
O209        O  0.76590799  0.28078950  0.75396153    -1.11900
C210        C  0.71995430  0.29011988  0.94946814     1.06200
O211        O  0.59133259  0.33076598  0.79251760    -0.78500
O212        O  0.68083515  0.39227099  0.83122599    -0.66100
Ni213      Ni  0.81734625  0.24086607  0.70905743     1.34900
C214        C  0.73319286  0.39850378  0.82513120     0.85000
O215        O  0.69415543  0.25640045  0.66396338    -0.79100
O216        O  0.78264598  0.27686708  0.64527309    -0.89400
C217        C  0.58100574  0.29445692  0.75407890     0.84600
O218        O  0.77562999  0.16971473  0.70595587    -0.67600
O219        O  0.67742512  0.31938025  0.93372644    -0.86800
C220        C  0.73177052  0.15045455  0.73132652     0.85400
C221        C  0.73518101  0.26277947  0.62899629     1.07000
H222        H  0.67444944  0.23411842  0.84270069     0.38800
O223        O  0.68631726  0.27063181  0.82629082    -1.09500
O224        O  0.76727097  0.35792127  0.83586154    -0.66200
Ni225      Ni  0.76415094  0.27522971  0.83381297     1.26300
O226        O  0.69810127  0.18319853  0.75687288    -0.66400
O227        O  0.75623766  0.27100901  0.91404095    -0.78700
C228        C  0.87555681  0.23518034  0.81024697     0.84800
O229        O  0.84517272  0.27175815  0.83600523    -0.65900
Ni230      Ni  0.63866533  0.32592008  0.86002951     1.27400
Ni231      Ni  0.68982024  0.26517263  0.74584798     1.26100
H232        H  0.77127028  0.32049327  0.74268783     0.39300
C233        C  0.70854567  0.99087813  0.72300455     0.80500
N234        N  0.72653020  0.04184929  0.74435155    -0.77800
C235        C  0.71200727  0.09261897  0.71736076     0.82900
N236        N  0.68399463  0.09113676  0.66893548    -0.77800
C237        C  0.66843273  0.04135984  0.64691323     0.83000
N238        N  0.67983275  0.99210086  0.67496643    -0.79500
C239        C  0.45409853  0.75547171  0.69674218     0.80500
N240        N  0.50522679  0.74839789  0.72242218    -0.77800
C241        C  0.55421019  0.75662793  0.69020871     0.82900
N242        N  0.55052486  0.76994073  0.63427575    -0.77800
C243        C  0.50139301  0.77616799  0.60877722     0.83000
N244        N  0.45406629  0.76973270  0.64058999    -0.79500
C245        C  0.26469603  0.96541278  0.69725091     0.80500
N246        N  0.24536557  0.01455185  0.72270537    -0.77800
C247        C  0.26235142  0.06776043  0.70073089     0.82900
N248        N  0.29140598  0.07012534  0.65075995    -0.77800
C249        C  0.30592950  0.02231173  0.62334119     0.83000
N250        N  0.29418335  0.97094498  0.64814065    -0.79500
O251        O  0.56531556  0.05171601  0.49628283    -0.74200
O252        O  0.41990852  0.01294915  0.48259299    -0.74200
O253        O  0.51084661  0.95503897  0.48827533    -0.74300
O254        O  0.47468269  0.11084191  0.49474960    -0.74300
O255        O  0.50273714  0.12445726  0.40481919    -0.74200
O256        O  0.50204912  0.95747481  0.39468056    -0.74200
O257        O  0.42304601  0.04156091  0.39172461    -0.74200
O258        O  0.58074535  0.04006706  0.40377079    -0.74300
Ni259      Ni  0.49224726  0.03243444  0.49351061     1.25400
Ni260      Ni  0.50248386  0.04141783  0.39386011     1.25400
C261        C  0.59791052  0.04576451  0.45379719     0.88000
C262        C  0.39596632  0.02591664  0.43679283     0.87900
C263        C  0.50736353  0.92929595  0.44198394     0.88000
C264        C  0.48901123  0.14439853  0.45353740     0.88100
C265        C  0.43568613  0.29353721  0.70930064     0.80500
N266        N  0.44321455  0.28667523  0.65312745    -0.77800
C267        C  0.49400236  0.28614575  0.62804327     0.82900
N268        N  0.53879996  0.29082204  0.66142425    -0.77800
C269        C  0.53213442  0.29926732  0.71834480     0.83000
N270        N  0.48018757  0.30045127  0.74240992    -0.79500
O271        O  0.36190758  0.31872575  0.77326253    -0.80600
O272        O  0.11022165  0.28222241  0.80263427    -0.65300
O273        O  0.26739722  0.25903794  0.78604837    -1.11900
C274        C  0.23103292  0.21225745  0.60417215     1.06200
O275        O  0.10276127  0.19451543  0.76939939    -0.78500
O276        O  0.19076786  0.13272440  0.73083430    -0.66100
Ni277      Ni  0.28451030  0.33079445  0.79090501     1.34900
C278        C  0.24190000  0.12527424  0.71983572     0.85000
O279        O  0.19752181  0.29169282  0.87295263    -0.79100
O280        O  0.28508803  0.32306246  0.87317419    -0.89400
C281        C  0.08282222  0.23527221  0.79797248     0.84600
O282        O  0.28594358  0.40746880  0.78837849    -0.67600
O283        O  0.18707091  0.19283264  0.62936033    -0.86800
C284        C  0.23449051  0.41169445  0.77732712     0.85400
C285        C  0.24072270  0.30518176  0.89967077     1.07000
H286        H  0.17716231  0.29203321  0.69571782     0.38800
O287        O  0.18967939  0.25917187  0.71747433    -1.09500
O288        O  0.27487699  0.16816349  0.71257116    -0.66200
Ni289      Ni  0.26788106  0.25197278  0.70754654     1.26300
O290        O  0.20084625  0.36579237  0.77699025    -0.66400
O291        O  0.26563777  0.24484112  0.62710149    -0.78700
C292        C  0.37875004  0.28896533  0.73138645     0.84800
O293        O  0.34656058  0.25741547  0.70311079    -0.65900
Ni294      Ni  0.14677569  0.19519889  0.70018637     1.27400
Ni295      Ni  0.19113542  0.27719939  0.79472620     1.26100
H296        H  0.28324278  0.23002100  0.81058382     0.39300
C297        C  0.20255678  0.72004294  0.96322724     0.80500
N298        N  0.14862945  0.70525760  0.97550303    -0.77800
C299        C  0.12999039  0.70123439  0.03022502     0.82900
N300        N  0.16562048  0.70959951  0.07159365    -0.77800
C301        C  0.21855216  0.72374606  0.06111941     0.83000
N302        N  0.23769139  0.73052640  0.00641749    -0.79500
C303        C  0.21389981  0.57003797  0.79558621     0.80500
N304        N  0.17361878  0.56199856  0.83664610    -0.77800
C305        C  0.15045641  0.50956965  0.84726886     0.82900
N306        N  0.16429454  0.46675556  0.81375993    -0.77800
C307        C  0.20895790  0.46953984  0.77940472     0.83000
N308        N  0.23615753  0.52180675  0.77084146    -0.79500
C309        C  0.23672379  0.29142973  0.96111220     0.80500
N310        N  0.19617245  0.25258599  0.97707608    -0.77800
C311        C  0.19151639  0.23201360  0.03081638     0.82900
N312        N  0.22572171  0.25282669  0.06856842    -0.77800
C313        C  0.26383569  0.29314793  0.05596179     0.83000
N314        N  0.27094469  0.31322746  0.00108873    -0.79500
O315        O  0.01532229  0.49171799  0.14474060    -0.74200
O316        O  0.02916396  0.33231447  0.16796998    -0.74200
O317        O  0.99664742  0.42142587  0.23415201    -0.74300
O318        O  0.05191969  0.40771855  0.08091318    -0.74300
O319        O  0.13790157  0.42247500  0.10969068    -0.74200
O320        O  0.08399741  0.42542320  0.26136068    -0.74200
O321        O  0.11803378  0.34087732  0.18831962    -0.74200
O322        O  0.10105302  0.50517625  0.17516189    -0.74300
Ni323      Ni  0.02003913  0.41213166  0.15665671     1.25400
Ni324      Ni  0.11319633  0.42348006  0.18590402     1.25400
C325        C  0.05708067  0.52382460  0.15109108     0.88000
C326        C  0.07749000  0.31107270  0.17080249     0.87900
C327        C  0.03199285  0.42960940  0.27217169     0.88000
C328        C  0.10371417  0.41787708  0.07015658     0.88100
C329        C  0.23041977  0.56392384  0.31370987     0.80500
N330        N  0.25734559  0.51321924  0.31003982    -0.77800
C331        C  0.23360895  0.46492907  0.33267702     0.82900
N332        N  0.18372478  0.46796401  0.35967276    -0.77800
C333        C  0.15603322  0.51801371  0.36388953     0.83000
N334        N  0.17914687  0.56617444  0.33935557    -0.79500
C335        C  0.57796228  0.71901323  0.24122416     0.80500
N336        N  0.52869920  0.72473558  0.27096900    -0.77800
C337        C  0.47944368  0.72391945  0.24323254     0.82900
N338        N  0.48021853  0.72120587  0.18612517    -0.77800
C339        C  0.52853359  0.71741290  0.15577208     0.83000
N340        N  0.57687730  0.71636147  0.18393301    -0.79500
C341        C  0.79989394  0.06810283  0.22233163     0.80500
N342        N  0.79877429  0.01477687  0.24765799    -0.77800
C343        C  0.80235993  0.96814678  0.21433572     0.82900
N344        N  0.80079842  0.97490955  0.15752433    -0.77800
C345        C  0.79687742  0.02691914  0.13251073     0.83000
N346        N  0.79976610  0.07300443  0.16513019    -0.79500
C347        C  0.29265600  0.06532748  0.19595523     0.80500
N348        N  0.29057743  0.05955419  0.13929103    -0.77800
C349        C  0.29841944  0.00800060  0.11622940     0.82900
N350        N  0.31102587  0.96261413  0.15041581    -0.77800
C351        C  0.31452638  0.96765807  0.20721445     0.83000
N352        N  0.30271266  0.01893340  0.23044024    -0.79500
O353        O  0.50088177  0.90028256  0.03557638    -0.74200
O354        O  0.49533076  0.06191815  0.02814077    -0.74200
O355        O  0.42269856  0.97724661  0.01304831    -0.74300
O356        O  0.57376266  0.98482694  0.04858125    -0.74300
O357        O  0.59849626  0.98457940  0.95689555    -0.74200
O358        O  0.44435755  0.97775809  0.92068152    -0.74200
O359        O  0.51973225  0.06399100  0.93645474    -0.74200
O360        O  0.52493908  0.89751418  0.94393674    -0.74300
Ni361      Ni  0.49726577  0.98086322  0.03426756     1.25400
Ni362      Ni  0.52249111  0.98060427  0.93579681     1.25400
C363        C  0.51478051  0.87219896  0.99215597     0.88000
C364        C  0.50812579  0.08992288  0.98245614     0.87900
C365        C  0.40834142  0.97745507  0.96144101     0.88000
C366        C  0.61063901  0.98879626  0.00881579     0.88100
C367        C  0.54396111  0.27473036  0.22000138     0.80500
N368        N  0.55072513  0.25966067  0.16483031    -0.77800
C369        C  0.50797543  0.26218901  0.12850904     0.82900
N370        N  0.45805449  0.27964202  0.14850894    -0.77800
C371        C  0.44940081  0.29397464  0.20299770     0.83000
N372        N  0.49229974  0.29033297  0.23983540    -0.79500
C373        C  0.77592712  0.21845908  0.48643526     0.80500
N374        N  0.74932562  0.25170909  0.52549843    -0.77800
C375        C  0.73671693  0.22927037  0.57818060     0.82900
N376        N  0.75381053  0.17643135  0.59152395    -0.77800
C377        C  0.78795097  0.14726857  0.55779693     0.83000
N378        N  0.79943946  0.16807979  0.50424066    -0.79500
C379        C  0.93105954  0.21718430  0.83085379     0.80500
N380        N  0.93319652  0.16749722  0.86155064    -0.77800
C381        C  0.98139920  0.14518557  0.87970442     0.82900
N382        N  0.02959884  0.17186952  0.86275345    -0.77800
C383        C  0.02976325  0.22085882  0.82958281     0.83000
N384        N  0.97992360  0.24255713  0.81236006    -0.79500
C385        C  0.96381437  0.23799283  0.34529599     0.80500
N386        N  0.96496817  0.20484801  0.39297393    -0.77800
C387        C  0.01264037  0.18306630  0.41234310     0.82900
N388        N  0.06101781  0.19519743  0.38444172    -0.77800
C389        C  0.06292576  0.22883786  0.33654195     0.83000
N390        N  0.01340174  0.25008359  0.31567446    -0.79500
O391        O  0.99553183  0.00687674  0.63534058    -0.74200
O392        O  0.00451362  0.94399934  0.78926138    -0.74200
O393        O  0.92521861  0.99313066  0.72587824    -0.74300
O394        O  0.07651723  0.95696652  0.69303280    -0.74300
O395        O  0.10039495  0.04100494  0.72502252    -0.74200
O396        O  0.94986455  0.07754905  0.75676247    -0.74200
O397        O  0.03442676  0.02963027  0.81366850    -0.74200
O398        O  0.01571228  0.09183393  0.66851435    -0.74300
Ni399      Ni  0.99979519  0.97097254  0.71059830     1.25400
Ni400      Ni  0.02636306  0.06263898  0.74258427     1.25400
C401        C  0.00332552  0.06094739  0.62738976     0.88000
C402        C  0.01768671  0.97944592  0.82731507     0.87900
C403        C  0.91526467  0.04608194  0.73196397     0.88000
C404        C  0.10774139  0.00132421  0.68993345     0.88100
C405        C  0.22679740  0.18317384  0.45393261     0.80500
N406        N  0.20894444  0.12807684  0.46000440    -0.77800
C407        C  0.21110114  0.10022152  0.51017047     0.82900
N408        N  0.23205739  0.12851339  0.55373301    -0.77800
C409        C  0.24303476  0.18511485  0.55065054     0.83000
N410        N  0.24026518  0.21355389  0.49995223    -0.79500
O411        O  0.29683205  0.40376118  0.28474074    -0.80600
O412        O  0.30679418  0.16459785  0.19814541    -0.65300
O413        O  0.25365457  0.31266143  0.23116049    -1.11900
C414        C  0.22599204  0.20810578  0.39761085     1.06200
O415        O  0.23647751  0.12468147  0.25288306    -0.78500
O416        O  0.13349251  0.17936547  0.28826939    -0.66100
Ni417      Ni  0.29288549  0.37994114  0.20714838     1.34900
C418        C  0.11880630  0.22852864  0.30589227     0.85000
O419        O  0.30897615  0.26612901  0.13564402    -0.79100
O420        O  0.28496613  0.35852480  0.12832767    -0.89400
C421        C  0.27868677  0.12098441  0.21817366     0.84600
O422        O  0.36870490  0.35147205  0.20687306    -0.67600
O423        O  0.21413488  0.17341157  0.35900930    -0.86800
C424        C  0.39071517  0.30343095  0.21984125     0.85400
C425        C  0.29276471  0.30944703  0.10671934     1.07000
H426        H  0.30024343  0.20308102  0.30785296     0.38800
O427        O  0.27171360  0.22208629  0.28537424    -1.09500
O428        O  0.15591429  0.27100740  0.30903946    -0.66200
Ni429      Ni  0.24239881  0.29074614  0.31016649     1.26300
O430        O  0.36185600  0.25955354  0.23426507    -0.66400
O431        O  0.23723894  0.26114567  0.38695462    -0.78700
C432        C  0.25327795  0.40854348  0.31655539     0.84800
O433        O  0.22269389  0.36548804  0.33057523    -0.65900
Ni434      Ni  0.20658869  0.19475702  0.28238210     1.27400
Ni435      Ni  0.28774085  0.24244545  0.21157487     1.26100
H436        H  0.21793642  0.31447244  0.21432476     0.39300
C437        C  0.15131762  0.98166852  0.59282414     0.23800
C438        C  0.13327384  0.01945292  0.63475778    -0.24300
C439        C  0.12592543  0.07721164  0.61808175     0.18800
C440        C  0.12933709  0.09377469  0.56194753     0.23800
C441        C  0.16482638  0.06288849  0.52742087    -0.24200
C442        C  0.17188932  0.00438359  0.54047746     0.18700
F443        F  0.19434815  0.96951352  0.50148609    -0.14200
F444        F  0.14906158  0.92444818  0.60206557    -0.16500
F445        F  0.11684240  0.14894326  0.54741953    -0.16500
F446        F  0.11213811  0.11806313  0.65499372    -0.14200
C447        C  0.99412889  0.14981971  0.56687772     0.23800
C448        C  0.00155925  0.08985383  0.57073983    -0.24300
C449        C  0.01810685  0.06151390  0.52144886     0.18800
C450        C  0.02523115  0.09256325  0.46993362     0.23800
C451        C  0.01132274  0.15064765  0.46620290    -0.24200
C452        C  0.99575725  0.17895517  0.51494775     0.18700
F453        F  0.98659528  0.23624457  0.51287116    -0.14200
F454        F  0.99035343  0.18187031  0.61344035    -0.16500
F455        F  0.04869935  0.06719064  0.42468705    -0.16500
F456        F  0.03537124  0.00635272  0.52487788    -0.14200
C457        C  0.93642288  0.04797504  0.89816601     0.23800
C458        C  0.98144207  0.08602558  0.90626901    -0.24300
C459        C  0.03068886  0.06133163  0.92698799     0.18800
C460        C  0.03852956  0.00164326  0.92275604     0.23800
C461        C  0.00226410  0.97176697  0.88811262    -0.24200
C462        C  0.94676154  0.98882949  0.89466302     0.18700
F463        F  0.90586492  0.95428105  0.87689369    -0.14200
F464        F  0.88556299  0.06752440  0.88437057    -0.16500
F465        F  0.08860964  0.97879372  0.93458317    -0.16500
F466        F  0.07328106  0.09467527  0.94291254    -0.14200
C467        C  0.83899478  0.03963831  0.66330734     0.23800
C468        C  0.87693401  0.07327424  0.69176020    -0.24300
C469        C  0.88954056  0.12843882  0.66935836     0.18800
C470        C  0.86724273  0.14786902  0.61852583     0.23800
C471        C  0.82802270  0.11493925  0.59121600    -0.24200
C472        C  0.81313222  0.06151475  0.61532373     0.18700
F473        F  0.77152668  0.03154449  0.59389763    -0.14200
F474        F  0.82684365  0.98549487  0.68192261    -0.16500
F475        F  0.87916241  0.20193321  0.59912384    -0.16500
F476        F  0.92486937  0.16334855  0.69570831    -0.14200
C477        C  0.46289109  0.18169960  0.00120341     0.23800
C478        C  0.51177919  0.15267324  0.98711253    -0.24300
C479        C  0.56206105  0.17521438  0.00515499     0.18800
C480        C  0.56215362  0.21440050  0.04906996     0.23800
C481        C  0.51173972  0.23568930  0.07143173    -0.24200
C482        C  0.46288032  0.22380417  0.04200659     0.18700
F483        F  0.41368114  0.24803447  0.05647600    -0.14200
F484        F  0.41390364  0.16413260  0.98087744    -0.16500
F485        F  0.61099425  0.22772456  0.07232831    -0.16500
F486        F  0.61078018  0.15376666  0.98533576    -0.14200
C487        C  0.33045063  0.03781026  0.96277164     0.23800
C488        C  0.34879160  0.98225430  0.95183919    -0.24300
C489        C  0.31804529  0.93745078  0.97824435     0.18800
C490        C  0.29384614  0.94650955  0.03164655     0.23800
C491        C  0.29647755  0.00147025  0.05430503    -0.24200
C492        C  0.30787394  0.04825615  0.01667417     0.18700
F493        F  0.30470890  0.10296939  0.03400501    -0.14200
F494        F  0.35051520  0.08245326  0.93036785    -0.16500
F495        F  0.27356589  0.90128830  0.06302456    -0.16500
F496        F  0.32497814  0.88313226  0.96085445    -0.14200
C497        C  0.71340918  0.97355671  0.01473274     0.23800
C498        C  0.66581743  0.00642398  0.02451385    -0.24300
C499        C  0.66851969  0.05461948  0.05761142     0.18800
C500        C  0.71633670  0.06773341  0.08469016     0.23800
C501        C  0.76215308  0.03057706  0.08236532    -0.24200
C502        C  0.76167986  0.98539779  0.04411126     0.18700
F503        F  0.80552047  0.94937444  0.04006689    -0.14200
F504        F  0.71121198  0.92669250  0.98245073    -0.16500
F505        F  0.71345186  0.11185868  0.12030074    -0.16500
F506        F  0.62229367  0.08519922  0.07000770    -0.14200
C507        C  0.47476994  0.77882466  0.02054260     0.23800
C508        C  0.52183506  0.81035268  0.00216813    -0.24300
C509        C  0.57390881  0.79229307  0.02057834     0.18800
C510        C  0.57753813  0.75258775  0.06588016     0.23800
C511        C  0.52875305  0.73156016  0.09371313    -0.24200
C512        C  0.47808597  0.73941437  0.06608746     0.18700
F513        F  0.43054037  0.71495556  0.08743722    -0.14200
F514        F  0.42419867  0.79320943  0.00089519    -0.16500
F515        F  0.62822505  0.74145503  0.08703532    -0.16500
F516        F  0.62041016  0.82072413  0.00203617    -0.14200
C517        C  0.01628926  0.51598597  0.32062380     0.23800
C518        C  0.01545436  0.45583761  0.32559450    -0.24300
C519        C  0.03727863  0.43096455  0.37479071     0.18800
C520        C  0.07716696  0.46142191  0.40359703     0.23800
C521        C  0.09612120  0.51435123  0.37997207    -0.24200
C522        C  0.05879192  0.54563987  0.34660811     0.18700
F523        F  0.07028227  0.60042601  0.32945800    -0.14200
F524        F  0.98883784  0.54280061  0.27814608    -0.16500
F525        F  0.10698926  0.43350462  0.44360638    -0.16500
F526        F  0.03050986  0.37412526  0.38625893    -0.14200
C527        C  0.14901095  0.18174238  0.11084209     0.23800
C528        C  0.14258678  0.19977238  0.05409304    -0.24300
C529        C  0.09205601  0.22549757  0.04168775     0.18800
C530        C  0.06580488  0.25724427  0.08377193     0.23800
C531        C  0.08804360  0.25883274  0.13842159    -0.24200
C532        C  0.12989077  0.21959719  0.15170611     0.18700
F533        F  0.16135016  0.22709774  0.19684398    -0.14200
F534        F  0.19290264  0.14807913  0.12369070    -0.16500
F535        F  0.02744224  0.29588567  0.06742954    -0.16500
F536        F  0.07790109  0.23457228  0.98706775    -0.14200
C537        C  0.16104477  0.51145893  0.95153712     0.23800
C538        C  0.13377198  0.48966591  0.90506764    -0.24300
C539        C  0.10523189  0.43687116  0.91251434     0.18800
C540        C  0.09936363  0.40992620  0.96574723     0.23800
C541        C  0.12298156  0.43421432  0.01242627    -0.24200
C542        C  0.15670267  0.48337471  0.00432172     0.18700
F543        F  0.18135815  0.50757703  0.04864078    -0.14200
F544        F  0.19425293  0.55837681  0.94568327    -0.16500
F545        F  0.07096701  0.35989122  0.97166735    -0.16500
F546        F  0.08500499  0.40988926  0.86754768    -0.14200
C547        C  0.05838541  0.57398558  0.05879586     0.23800
C548        C  0.05772264  0.57767210  0.11795632    -0.24300
C549        C  0.05630355  0.63151238  0.14170727     0.18800
C550        C  0.06176346  0.68021474  0.10590651     0.23800
C551        C  0.07745797  0.67398701  0.04836603    -0.24200
C552        C  0.06678034  0.62207667  0.02383275     0.18700
F553        F  0.07424259  0.61583530  0.96727620    -0.14200
F554        F  0.05420531  0.52302511  0.03457841    -0.16500
F555        F  0.06565496  0.73231056  0.12889657    -0.16500
F556        F  0.05317343  0.63674887  0.19862111    -0.14200
C557        C  0.44863011  0.23460263  0.48658689     0.23800
C558        C  0.49593473  0.20486231  0.46862220    -0.24300
C559        C  0.54664397  0.21881749  0.49285798     0.18800
C560        C  0.54795618  0.25066465  0.54226059     0.23800
C561        C  0.49831850  0.27090052  0.56691480    -0.24200
C562        C  0.44976052  0.26780105  0.53481605     0.18700
F563        F  0.40176712  0.29248082  0.55263866    -0.14200
F564        F  0.39956284  0.22587365  0.46175080    -0.16500
F565        F  0.59682921  0.25667468  0.56847287    -0.16500
F566        F  0.59382254  0.19391876  0.47395862    -0.14200
C567        C  0.33268217  0.07818417  0.53398390     0.23800
C568        C  0.31888793  0.02553769  0.56166395    -0.24300
C569        C  0.30844604  0.97785919  0.52786401     0.18800
C570        C  0.31325954  0.98310467  0.46882158     0.23800
C571        C  0.33697164  0.03288196  0.44429924    -0.24200
C572        C  0.33135991  0.08296051  0.47467247     0.18700
F573        F  0.34368498  0.13380155  0.44829621    -0.14200
F574        F  0.34635621  0.12471346  0.56367199    -0.16500
F575        F  0.31218459  0.93502567  0.43845918    -0.16500
F576        F  0.29625472  0.92553409  0.55127959    -0.14200
C577        C  0.54897409  0.80218875  0.51445640     0.23800
C578        C  0.49982491  0.79608712  0.54809381    -0.24300
C579        C  0.45004006  0.81574024  0.52473661     0.18800
C580        C  0.45122343  0.84999081  0.47517287     0.23800
C581        C  0.50195667  0.86683781  0.44919753    -0.24200
C582        C  0.54952801  0.83635516  0.46456500     0.18700
F583        F  0.59808939  0.84559723  0.43546967    -0.14200
F584        F  0.59729092  0.77875173  0.53160543    -0.16500
F585        F  0.40433980  0.87790344  0.46079547    -0.16500
F586        F  0.40082458  0.80799809  0.55303242    -0.14200
C587        C  0.65685461  0.98654064  0.55916857     0.23800
C588        C  0.65890192  0.03952628  0.58595483    -0.24300
C589        C  0.66496160  0.08991769  0.55203931     0.18800
C590        C  0.67403630  0.08624178  0.49381614     0.23800
C591        C  0.65411212  0.03743183  0.46904325    -0.24200
C592        C  0.65555948  0.98559811  0.50063152     0.18700
F593        F  0.63934031  0.93652488  0.47692486    -0.14200
F594        F  0.65088825  0.93621354  0.58892486    -0.16500
F595        F  0.68199568  0.13452812  0.46143491    -0.16500
F596        F  0.65486798  0.14177444  0.57385281    -0.14200
C597        C  0.90587029  0.36873108  0.13623978     0.23800
C598        C  0.89173186  0.39945734  0.08730903    -0.24300
C599        C  0.86638638  0.45322460  0.09122297     0.18800
C600        C  0.86169930  0.47926974  0.14278593     0.23800
C601        C  0.87541907  0.44873318  0.19216833    -0.24200
C602        C  0.89533697  0.39236967  0.18874324     0.18700
F603        F  0.90311440  0.35996865  0.23640657    -0.14200
F604        F  0.92528522  0.31453042  0.13330075    -0.16500
F605        F  0.83830261  0.53196285  0.14488793    -0.16500
F606        F  0.84721264  0.48130607  0.04463044    -0.14200
C607        C  0.85506196  0.16621810  0.95792169     0.23800
C608        C  0.89704119  0.20236453  0.97761440    -0.24300
C609        C  0.91150253  0.19508087  0.03477390     0.18800
C610        C  0.87409297  0.16759619  0.07295065     0.23800
C611        C  0.82284594  0.15205828  0.05206212    -0.24200
C612        C  0.82501773  0.13151803  0.99694273     0.18700
F613        F  0.78065766  0.10282306  0.97785862    -0.14200
F614        F  0.83413026  0.17334385  0.90577893    -0.16500
F615        F  0.87992866  0.17379524  0.12929585    -0.16500
F616        F  0.95394492  0.22448968  0.05555307    -0.14200
C617        C  0.93751048  0.48273007  0.73458354     0.23800
C618        C  0.88874829  0.46073371  0.71308593    -0.24300
C619        C  0.89023863  0.40297053  0.69716865     0.18800
C620        C  0.92743449  0.36528355  0.72337298     0.23800
C621        C  0.96199406  0.38593435  0.76507646    -0.24200
C622        C  0.97442794  0.44497539  0.76160131     0.18700
F623        F  0.01355784  0.46676730  0.79494155    -0.14200
F624        F  0.94386366  0.54002268  0.73820515    -0.16500
F625        F  0.92151861  0.30819317  0.71707408    -0.16500
F626        F  0.84755252  0.38087401  0.66858615    -0.14200
C627        C  0.94952297  0.54017373  0.99295933     0.23800
C628        C  0.95189846  0.52880577  0.93559709    -0.24300
C629        C  0.95220757  0.57342653  0.89534625     0.18800
C630        C  0.94362520  0.62912590  0.91267597     0.23800
C631        C  0.93291552  0.63931885  0.97046108    -0.24200
C632        C  0.93904312  0.59476029  0.01072462     0.18700
F633        F  0.92979270  0.60229464  0.06686995    -0.14200
F634        F  0.95461839  0.49727170  0.03206075    -0.16500
F635        F  0.93980247  0.67183229  0.87277330    -0.16500
F636        F  0.95811528  0.56286435  0.83980395    -0.14200
C637        C  0.13462322  0.92548329  0.34654183     0.23800
C638        C  0.08304512  0.89862556  0.34207294    -0.24300
C639        C  0.07504930  0.84254998  0.36424026     0.18800
C640        C  0.11521387  0.81751485  0.39811947     0.23800
C641        C  0.16410152  0.84756934  0.40737162    -0.24200
C642        C  0.17521771  0.89944914  0.37807137     0.18700
F643        F  0.22450487  0.92654070  0.38236565    -0.14200
F644        F  0.14357426  0.97966063  0.32595800    -0.16500
F645        F  0.10613954  0.76488851  0.42250377    -0.16500
F646        F  0.02641135  0.81454966  0.35791217    -0.14200
C647        C  0.98350044  0.96416840  0.15384776     0.23800
C648        C  0.03339300  0.94807156  0.18008552    -0.24300
C649        C  0.06749098  0.99238678  0.19898199     0.18800
C650        C  0.04472226  0.04730463  0.20511516     0.23800
C651        C  0.98685491  0.05240814  0.20214606    -0.24200
C652        C  0.96403085  0.02032522  0.15933315     0.18700
F653        F  0.91409830  0.03491546  0.13890545    -0.14200
F654        F  0.95111476  0.92498008  0.12925237    -0.16500
F655        F  0.07441835  0.08824984  0.23024638    -0.16500
F656        F  0.11910775  0.98144723  0.21747686    -0.14200
C657        C  0.93855057  0.92221260  0.55215896     0.23800
C658        C  0.94560549  0.89544675  0.50040524    -0.24300
C659        C  0.95958636  0.83675663  0.50101761     0.18800
C660        C  0.96934928  0.80695275  0.55256887     0.23800
C661        C  0.96160583  0.83459620  0.60403284    -0.24200
C662        C  0.94364652  0.89134921  0.60292960     0.18700
F663        F  0.93004739  0.91665219  0.65184893    -0.14200
F664        F  0.92516516  0.97828710  0.55381212    -0.16500
F665        F  0.98458207  0.75116185  0.55226538    -0.16500
F666        F  0.96490850  0.80863451  0.45199165    -0.14200
C667        C  0.80271575  0.97612881  0.49741763     0.23800
C668        C  0.76722013  0.94384957  0.46568300    -0.24300
C669        C  0.74516683  0.96879905  0.41597442     0.18800
C670        C  0.76120831  0.02376334  0.39805635     0.23800
C671        C  0.80995224  0.04556823  0.41944409    -0.24200
C672        C  0.82229239  0.02917521  0.47538345     0.18700
F673        F  0.86616049  0.05385145  0.49973000    -0.14200
F674        F  0.82318039  0.95290677  0.54556143    -0.16500
F675        F  0.74023397  0.04662451  0.35001814    -0.16500
F676        F  0.70787155  0.94039572  0.38520572    -0.14200
loop_ 
_geom_bond_atom_site_label_1 
_geom_bond_atom_site_label_2 
_geom_bond_distance 
_geom_bond_site_symmetry_2 
_ccdc_geom_bond_type 
O1           Ni7   1.956       .  S
O1           C22   1.282       .  A
O2          Ni25   1.918       .  S
O2           C11   1.280       .  A
O3           Ni7   1.916       .  S
O3          Ni25   1.898       .  S
O3          Ni19   1.936       .  S
O3           H26   0.966       .  S
C4           O21   1.288       .  A
C4           O13   1.271       .  A
C4          C143   1.486       .  S
O5          Ni24   1.954       .  S
O5           C11   1.276       .  A
O6          Ni24   1.955       .  S
O6            C8   1.284       .  A
Ni7          O10   1.974       .  S
Ni7          O12   1.944       .  S
C8           O18   1.281       .  A
C8           C63   1.509       .  S
O9          Ni25   1.966       .  S
O9           C15   1.293       .  A
O10          C15   1.285       .  A
C11         C233   1.493       .  S
O12          C14   1.278       .  A
O13         Ni24   1.933       .  S
C14          O20   1.292       .  A
C14         C241   1.526       .  S
C15          C55   1.529       .  S
H16          O17   0.967       .  S
O17         Ni25   1.944       .  S
O17         Ni19   1.931       .  S
O17         Ni24   1.952       .  S
O18         Ni19   1.969       .  S
Ni19         O23   1.954       .  S
Ni19         O21   1.950       .  S
O20         Ni25   1.998       .  S
C22          O23   1.284       .  A
C22         C149   1.508       .  S
O27         Ni33   1.911       .  S
O27          C48   1.264       .  A
O28         Ni51   1.941       .  S
O28          C37   1.281       .  A
O29         Ni33   1.912       .  S
O29         Ni51   1.918       .  S
O29         Ni45   1.903       .  S
O29          H52   0.966       .  S
C30          O47   1.276       .  A
C30          O39   1.284       .  A
C30         C297   1.481       .  S
O31         Ni50   2.001       .  S
O31          C37   1.289       .  A
O32         Ni50   1.967       .  S
O32          C34   1.285       .  A
Ni33         O36   1.917       .  S
Ni33         O38   1.927       .  S
C34          O44   1.289       .  A
C34         C303   1.522       .  S
O35         Ni51   1.954       .  S
O35          C41   1.285       .  A
O36          C41   1.279       .  A
C37         C239   1.537       .  S
O38          C40   1.264       .  A
O39         Ni50   1.958       .  S
C40          O46   1.284       .  A
C40         C245   1.503       .  S
C41          C89   1.487       .  S
H42          O43   0.966       .  S
O43         Ni51   1.929       .  S
O43         Ni45   1.959       .  S
O43         Ni50   1.936       .  S
O44         Ni45   1.969       .  S
Ni45         O49   2.007       .  S
Ni45         O47   1.910       .  S
O46         Ni51   1.975       .  S
C48          O49   1.287       .  A
C48          C59   1.527       .  S
C53         C124   1.508       .  S
C53          N54   1.391       .  A
C53          N58   1.338       .  A
N54          C55   1.401       .  A
C55          N56   1.370       .  A
N56          C57   1.357       .  A
C57         C668   1.466       .  S
C57          N58   1.330       .  A
C59          N60   1.369       .  A
C59          N64   1.390   1_455  A
N60          C61   1.360   1_455  A
C61         C661   1.481       .  S
C61          N62   1.350       .  A
N62          C63   1.351       .  A
C63          N64   1.391       .  A
C65          C98   1.524       .  S
C65          N66   1.366       .  A
C65          N70   1.398       .  A
N66          C67   1.348       .  A
C67         C648   1.486       .  S
C67          N68   1.342   1_455  A
N68          C69   1.355   1_655  A
C69         C131   1.524   1_455  S
C69          N70   1.396       .  A
O71         Ni79   1.917       .  S
O71          C81   1.281       .  A
O72         Ni79   1.928   1_565  S
O72          C82   1.283       .  A
O73         Ni79   1.887   1_465  S
O73          C83   1.274       .  A
O74         Ni79   1.898       .  S
O74          C84   1.275       .  A
O75         Ni80   1.886       .  S
O75          C84   1.281   1_565  A
O76         Ni80   1.896       .  S
O76          C83   1.275   1_655  A
O77         Ni80   1.924       .  S
O77          C82   1.280       .  A
O78         Ni80   1.902       .  S
O78          C81   1.283   1_565  A
Ni79        Ni80   2.387   1_545  S
C81         C651   1.486       .  S
C82         C658   1.487       .  S
C83         C638   1.451       .  S
C84         C671   1.459       .  S
C85         C105   1.454       .  S
C85          N86   1.338       .  A
C85          N90   1.373       .  A
N86          C87   1.327       .  A
C87         C641   1.444       .  S
C87          N88   1.349       .  A
N88          C89   1.365       .  A
C89          N90   1.376       .  A
O91         Ni97   1.928       .  S
O91         C112   1.275       .  A
O92        Ni115   1.949       .  S
O92         C101   1.282       .  A
O93         Ni97   1.917       .  S
O93        Ni115   1.914       .  S
O93        Ni109   1.941       .  S
O93         H116   0.964       .  S
C94         O111   1.300       .  A
C94         O103   1.276       .  A
C94         C301   1.457       .  S
O95        Ni114   1.894       .  S
O95         C101   1.258       .  A
O96        Ni114   1.907       .  S
O96          C98   1.266       .  A
Ni97        O100   1.940       .  S
Ni97        O102   1.925       .  S
C98         O108   1.287       .  A
O99        Ni115   1.929       .  S
O99         C105   1.280       .  A
O100        C105   1.273       .  A
C101        C351   1.459       .  S
O102        C104   1.273       .  A
O103       Ni114   1.909       .  S
C104        O110   1.281       .  A
C104        C337   1.486       .  S
H106        O107   0.967       .  S
O107       Ni115   1.924       .  S
O107       Ni109   1.865       .  S
O107       Ni114   1.851       .  S
O108       Ni109   2.009       .  S
Ni109       O113   1.907       .  S
Ni109       O111   1.959       .  S
O110       Ni115   1.955       .  S
C112        O113   1.272       .  A
C112        C329   1.459       .  S
O117       Ni123   1.905       .  S
O117        C138   1.287       .  A
O118       Ni141   1.861       .  S
O118        C127   1.267       .  A
O119       Ni123   1.866       .  S
O119       Ni141   1.829       .  S
O119       Ni135   1.912       .  S
O119        H142   0.967       .  S
C120        O137   1.298       .  A
C120        O129   1.281       .  A
C120        C335   1.490       .  S
O121       Ni140   1.964       .  S
O121        C127   1.282       .  A
O122       Ni140   1.908       .  S
O122        C124   1.274       .  A
Ni123       O126   1.985       .  S
Ni123       O128   1.927       .  S
C124        O134   1.284       .  A
O125       Ni141   1.950       .  S
O125        C131   1.298       .  A
O126        C131   1.297       .  A
C127        C343   1.456       .  S
O128        C130   1.271       .  A
O129       Ni140   1.924       .  S
C130        O136   1.269       .  A
C130        C147   1.514       .  S
H132        O133   0.966       .  S
O133       Ni141   1.913       .  S
O133       Ni135   1.902       .  S
O133       Ni140   1.877       .  S
O134       Ni135   1.993       .  S
Ni135       O139   1.957       .  S
Ni135       O137   1.975       .  S
O136       Ni141   1.975       .  S
C138        O139   1.296       .  A
C138        C175   1.461       .  S
C143        N144   1.340       .  A
C143        N148   1.392   1_556  A
N144        C145   1.335       .  A
C145        C631   1.456       .  S
C145        N146   1.346   1_556  A
N146        C147   1.354       .  A
C147        N148   1.391       .  A
C149        N150   1.376       .  A
C149        N154   1.386       .  A
N150        C151   1.365       .  A
C151        C618   1.489       .  S
C151        N152   1.342       .  A
N152        C153   1.342       .  A
C153        C214   1.494       .  S
C153        N154   1.377       .  A
C155        C210   1.515   1_554  S
C155        N156   1.385       .  A
C155        N160   1.341       .  A
N156        C157   1.397       .  A
C157        C188   1.481       .  S
C157        N158   1.360       .  A
N158        C159   1.342       .  A
C159        C611   1.482       .  S
C159        N160   1.341       .  A
O161       Ni169   1.875       .  S
O161        C171   1.271   1_556  A
O162       Ni169   1.898       .  S
O162        C172   1.276       .  A
O163       Ni169   1.923       .  S
O163        C173   1.281       .  A
O164       Ni169   1.911       .  S
O164        C174   1.280       .  A
O165       Ni170   1.886       .  S
O165        C174   1.269       .  A
O166       Ni170   1.913       .  S
O166        C173   1.278       .  A
O167       Ni170   1.938       .  S
O167        C172   1.284       .  A
O168       Ni170   1.925   1_554  S
O168        C171   1.283       .  A
Ni169      Ni170   2.388       .  S
C171        C598   1.451       .  S
C172        C621   1.481       .  S
C173        C608   1.478       .  S
C174        C628   1.441       .  S
C175        N176   1.361       .  A
C175        N180   1.367       .  A
N176        C177   1.350       .  A
C177        C601   1.449       .  S
C177        N178   1.333       .  A
N178        C179   1.339       .  A
C179        C202   1.436       .  S
C179        N180   1.364       .  A
O181       Ni187   1.919       .  S
O181        C202   1.266       .  A
O182       Ni205   1.933       .  S
O182        C191   1.275       .  A
O183       Ni187   1.888       .  S
O183       Ni205   1.881       .  S
O183       Ni199   1.968       .  S
O183        H206   0.965       .  S
C184        O201   1.288       .  A
C184        O193   1.273       .  A
C184        C367   1.494       .  S
O185       Ni204   1.908       .  S
O185        C191   1.272       .  A
O186       Ni204   1.926       .  S
O186        C188   1.268       .  A
Ni187       O190   1.971       .  S
Ni187       O192   1.906       .  S
C188        O198   1.283       .  A
O189       Ni205   1.966       .  S
O189        C195   1.292       .  A
O190        C195   1.290       .  A
C191        C341   1.468       .  S
O192        C194   1.267       .  A
O193       Ni204   1.916       .  S
C194        O200   1.282       .  A
C194        C373   1.486       .  S
C195        C385   1.509       .  S
H196        O197   0.966       .  S
O197       Ni205   1.958       .  S
O197       Ni199   1.896       .  S
O197       Ni204   1.878       .  S
O198       Ni199   1.970       .  S
Ni199       O203   1.917       .  S
Ni199       O201   1.979       .  S
O200       Ni205   1.963       .  S
C202        O203   1.275       .  A
O207       Ni213   1.905       .  S
O207        C228   1.263       .  A
O208       Ni231   1.864       .  S
O208        C217   1.263       .  A
O209       Ni213   1.881       .  S
O209       Ni231   1.887       .  S
O209       Ni225   1.890       .  S
O209        H232   0.966       .  S
C210        O227   1.286       .  A
C210        O219   1.293       .  A
O211       Ni230   1.991       .  S
O211        C217   1.292       .  A
O212       Ni230   1.948       .  S
O212        C214   1.275       .  A
Ni213       O216   1.920       .  S
Ni213       O218   1.947       .  S
C214        O224   1.282       .  A
O215       Ni231   1.956       .  S
O215        C221   1.278       .  A
O216        C221   1.265       .  A
C217        C269   1.473       .  S
O218        C220   1.276       .  A
O219       Ni230   2.005       .  S
C220        O226   1.272       .  A
C220        C235   1.483       .  S
C221        C375   1.456       .  S
H222        O223   0.966       .  S
O223       Ni231   1.912       .  S
O223       Ni225   1.895       .  S
O223       Ni230   1.912       .  S
O224       Ni225   1.937       .  S
Ni225       O229   1.959       .  S
Ni225       O227   1.903       .  S
O226       Ni231   1.939       .  S
C228        O229   1.286       .  A
C228        C379   1.496       .  S
C233        N234   1.382   1_565  A
C233        N238   1.348       .  A
N234        C235   1.382       .  A
C235        N236   1.348       .  A
N236        C237   1.347       .  A
C237        C588   1.470       .  S
C237        N238   1.345   1_545  A
C239        N240   1.399       .  A
C239        N244   1.361       .  A
N240        C241   1.398       .  A
C241        N242   1.356       .  A
N242        C243   1.352       .  A
C243        C578   1.498       .  S
C243        N244   1.356       .  A
C245        N246   1.390   1_565  A
C245        N250   1.349       .  A
N246        C247   1.390       .  A
C247        C278   1.512       .  S
C247        N248   1.358       .  A
N248        C249   1.353       .  A
C249        C568   1.484       .  S
C249        N250   1.347   1_545  A
O251       Ni259   1.822       .  S
O251        C261   1.271       .  A
O252       Ni259   1.830       .  S
O252        C262   1.272       .  A
O253       Ni259   1.873   1_565  S
O253        C263   1.271       .  A
O254       Ni259   1.885       .  S
O254        C264   1.273       .  A
O255       Ni260   1.967       .  S
O255        C264   1.292       .  A
O256       Ni260   1.963   1_565  S
O256        C263   1.291       .  A
O257       Ni260   1.919       .  S
O257        C262   1.279       .  A
O258       Ni260   1.910       .  S
O258        C261   1.276       .  A
Ni259      Ni260   2.368       .  S
C261        C591   1.426       .  S
C262        C571   1.440       .  S
C263        C581   1.470       .  S
C264        C558   1.479       .  S
C265        C292   1.459       .  S
C265        N266   1.352       .  A
C265        N270   1.359       .  A
N266        C267   1.347       .  A
C267        C561   1.502       .  S
C267        N268   1.363       .  A
N268        C269   1.373       .  A
C269        N270   1.363       .  A
O271       Ni277   1.926       .  S
O271        C292   1.286       .  A
O272       Ni295   1.961       .  S
O272        C281   1.289       .  A
O273       Ni277   1.735       .  S
O273       Ni295   1.897       .  S
O273       Ni289   1.871       .  S
O273        H296   0.966       .  S
C274        O291   1.273       .  A
C274        O283   1.278       .  A
C274        C409   1.457       .  S
O275       Ni294   1.927       .  S
O275        C281   1.274       .  A
O276       Ni294   1.943       .  S
O276        C278   1.268       .  A
Ni277       O280   1.951       .  S
Ni277       O282   1.793       .  S
C278        O288   1.283       .  A
O279       Ni295   1.903       .  S
O279        C285   1.278       .  A
O280        C285   1.288       .  A
C281        C383   1.497       .  S
O282        C284   1.280       .  A
O283       Ni294   1.917       .  S
C284        O290   1.344       .  A
C284        C307   1.490       .  S
C285        C309   1.480       .  S
H286        O287   0.966       .  S
O287       Ni295   1.891       .  S
O287       Ni289   1.904       .  S
O287       Ni294   1.879       .  S
O288       Ni289   1.968       .  S
Ni289       O293   1.902       .  S
Ni289       O291   1.919       .  S
O290       Ni295   2.112       .  S
C292        O293   1.285       .  A
C297        N298   1.367       .  A
C297        N302   1.374   1_556  A
N298        C299   1.360   1_556  A
C299        C551   1.465       .  S
C299        N300   1.340       .  A
N300        C301   1.333       .  A
C301        N302   1.367       .  A
C303        N304   1.364       .  A
C303        N308   1.390       .  A
N304        C305   1.359       .  A
C305        C538   1.476       .  S
C305        N306   1.334       .  A
N306        C307   1.332       .  A
C307        N308   1.392       .  A
C309        N310   1.371       .  A
C309        N314   1.382   1_556  A
N310        C311   1.348   1_556  A
C311        C528   1.483       .  S
C311        N312   1.335       .  A
N312        C313   1.337       .  A
C313        C425   1.466       .  S
C313        N314   1.374       .  A
O315       Ni323   1.878       .  S
O315        C325   1.270       .  A
O316       Ni323   1.892       .  S
O316        C326   1.272       .  A
O317       Ni323   1.923   1_655  S
O317        C327   1.276   1_655  A
O318       Ni323   1.937       .  S
O318        C328   1.289       .  A
O319       Ni324   1.885       .  S
O319        C328   1.272       .  A
O320       Ni324   1.904       .  S
O320        C327   1.279       .  A
O321       Ni324   1.935       .  S
O321        C326   1.285       .  A
O322       Ni324   1.944       .  S
O322        C325   1.289       .  A
Ni323      Ni324   2.387       .  S
C325        C548   1.463       .  S
C326        C531   1.481       .  S
C327        C518   1.469       .  S
C328        C541   1.470       .  S
C329        N330   1.358       .  A
C329        N334   1.365       .  A
N330        C331   1.354       .  A
C331        C432   1.461       .  S
C331        N332   1.350       .  A
N332        C333   1.355       .  A
C333        C521   1.486       .  S
C333        N334   1.362       .  A
C335        N336   1.374       .  A
C335        N340   1.361       .  A
N336        C337   1.374       .  A
C337        N338   1.355       .  A
N338        C339   1.357       .  A
C339        C511   1.496       .  S
C339        N340   1.360       .  A
C341        N342   1.367       .  A
C341        N346   1.356       .  A
N342        C343   1.367   1_545  A
C343        N344   1.351       .  A
N344        C345   1.341   1_565  A
C345        C501   1.473       .  S
C345        N346   1.348       .  A
C347        C421   1.456       .  S
C347        N348   1.355       .  A
C347        N352   1.364       .  A
N348        C349   1.351       .  A
C349        C491   1.481       .  S
C349        N350   1.355   1_545  A
N350        C351   1.358       .  A
C351        N352   1.362   1_565  A
O353       Ni361   1.886       .  S
O353        C363   1.275   1_554  A
O354       Ni361   1.898   1_545  S
O354        C364   1.277   1_554  A
O355       Ni361   1.884       .  S
O355        C365   1.279   1_554  A
O356       Ni361   1.889       .  S
O356        C366   1.278       .  A
O357       Ni362   1.917       .  S
O357        C366   1.278   1_556  A
O358       Ni362   1.930       .  S
O358        C365   1.280       .  A
O359       Ni362   1.952   1_545  S
O359        C364   1.287       .  A
O360       Ni362   1.948       .  S
O360        C363   1.287       .  A
Ni361      Ni362   2.393   1_554  S
C363        C508   1.470   1_556  S
C364        C478   1.478       .  S
C365        C488   1.465       .  S
C366        C498   1.454   1_565  S
C367        N368   1.369       .  A
C367        N372   1.374       .  A
N368        C369   1.362       .  A
C369        C481   1.505       .  S
C369        N370   1.351       .  A
N370        C371   1.354       .  A
C371        C424   1.480       .  S
C371        N372   1.373       .  A
C373        N374   1.374       .  A
C373        N378   1.369       .  A
N374        C375   1.364       .  A
C375        N376   1.336       .  A
N376        C377   1.335       .  A
C377        C471   1.464       .  S
C377        N378   1.365       .  A
C379        N380   1.353       .  A
C379        N384   1.373       .  A
N380        C381   1.352       .  A
C381        C458   1.502       .  S
C381        N382   1.363   1_655  A
N382        C383   1.369       .  A
C383        N384   1.375   1_455  A
C385        N386   1.350       .  A
C385        N390   1.394   1_655  A
N386        C387   1.346   1_655  A
C387        C451   1.463       .  S
C387        N388   1.350       .  A
N388        C389   1.360       .  A
C389        C418   1.514       .  S
C389        N390   1.393       .  A
O391       Ni399   1.952   1_545  S
O391        C401   1.285   1_655  A
O392       Ni399   1.954   1_455  S
O392        C402   1.289       .  A
O393       Ni399   1.903       .  S
O393        C403   1.274   1_565  A
O394       Ni399   1.918   1_455  S
O394        C404   1.279   1_565  A
O395       Ni400   1.897       .  S
O395        C404   1.274       .  A
O396       Ni400   1.903   1_655  S
O396        C403   1.278       .  A
O397       Ni400   1.845       .  S
O397        C402   1.269   1_545  A
O398       Ni400   1.887       .  S
O398        C401   1.272       .  A
Ni399      Ni400   2.387   1_665  S
C401        C448   1.485       .  S
C402        C461   1.482       .  S
C403        C468   1.477       .  S
C404        C438   1.478       .  S
C405        C414   1.439       .  S
C405        N406   1.360       .  A
C405        N410   1.365       .  A
N406        C407   1.339       .  A
C407        C441   1.457       .  S
C407        N408   1.351       .  A
N408        C409   1.349       .  A
C409        N410   1.358       .  A
O411       Ni417   1.941       .  S
O411        C432   1.283       .  A
O412       Ni435   1.913       .  S
O412        C421   1.294       .  A
O413       Ni417   1.898       .  S
O413       Ni435   1.904       .  S
O413       Ni429   1.936       .  S
O413        H436   0.960       .  S
C414        O431   1.285       .  A
C414        O423   1.278       .  A
O415       Ni434   1.935       .  S
O415        C421   1.296       .  A
O416       Ni434   1.800       .  S
O416        C418   1.283       .  A
Ni417       O420   1.961       .  S
Ni417       O422   1.949       .  S
C418        O428   1.341       .  A
O419       Ni435   1.920       .  S
O419        C425   1.274       .  A
O420        C425   1.283       .  A
O422        C424   1.277       .  A
O423       Ni434   1.881       .  S
C424        O430   1.271       .  A
H426        O427   0.981       .  S
O427       Ni435   1.827       .  S
O427       Ni429   1.862       .  S
O427       Ni434   1.699       .  S
O428       Ni429   2.137       .  S
Ni429       O433   1.887       .  S
Ni429       O431   1.926       .  S
O430       Ni435   1.926       .  S
C432        O433   1.277       .  A
C437        C438   1.410   1_565  A
C437        C442   1.410   1_565  A
C437        F444   1.350       .  S
C438        C439   1.409       .  A
C439        C440   1.373       .  A
C439        F446   1.351       .  S
C440        C441   1.387       .  A
C440        F445   1.362       .  S
C441        C442   1.405       .  A
C442        F443   1.354   1_545  S
C447        C448   1.415   1_655  A
C447        C452   1.387       .  A
C447        F454   1.353       .  S
C448        C449   1.409       .  A
C449        C450   1.406       .  A
C449        F456   1.358       .  S
C450        C451   1.401       .  A
C450        F455   1.352       .  S
C451        C452   1.391   1_455  A
C452        F453   1.358       .  S
C457        C458   1.423       .  A
C457        C462   1.411   1_545  A
C457        F464   1.356       .  S
C458        C459   1.416   1_655  A
C459        C460   1.416       .  A
C459        F466   1.357       .  S
C460        C461   1.414   1_545  A
C460        F465   1.356   1_545  S
C461        C462   1.405   1_455  A
C462        F463   1.358       .  S
C467        C468   1.405       .  A
C467        C472   1.396       .  A
C467        F474   1.356   1_545  S
C468        C469   1.409       .  A
C469        C470   1.396       .  A
C469        F476   1.356       .  S
C470        C471   1.403       .  A
C470        F475   1.359       .  S
C471        C472   1.399       .  A
C472        F473   1.343       .  S
C477        C478   1.401   1_554  A
C477        C482   1.401       .  A
C477        F484   1.356   1_554  S
C478        C479   1.404   1_556  A
C479        C480   1.407       .  A
C479        F486   1.357   1_554  S
C480        C481   1.412       .  A
C480        F485   1.354       .  S
C481        C482   1.417       .  A
C482        F483   1.357       .  S
C487        C488   1.403   1_545  A
C487        C492   1.402   1_556  A
C487        F494   1.356       .  S
C488        C489   1.403       .  A
C489        C490   1.400   1_556  A
C489        F496   1.357       .  S
C490        C491   1.410   1_565  A
C490        F495   1.356       .  S
C491        C492   1.411       .  A
C492        F493   1.358       .  S
C497        C498   1.402   1_565  A
C497        C502   1.405       .  A
C497        F504   1.357   1_554  S
C498        C499   1.395       .  A
C499        C500   1.374       .  A
C499        F506   1.357       .  S
C500        C501   1.410       .  A
C500        F505   1.353       .  S
C501        C502   1.413   1_545  A
C502        F503   1.358       .  S
C507        C508   1.404       .  A
C507        C512   1.401       .  A
C507        F514   1.358       .  S
C508        C509   1.404       .  A
C509        C510   1.402       .  A
C509        F516   1.358       .  S
C510        C511   1.413       .  A
C510        F515   1.358       .  S
C511        C512   1.413       .  A
C512        F513   1.358       .  S
C517        C518   1.408       .  A
C517        C522   1.403       .  A
C517        F524   1.358   1_455  S
C518        C519   1.402       .  A
C519        C520   1.401       .  A
C519        F526   1.357       .  S
C520        C521   1.412       .  A
C520        F525   1.358       .  S
C521        C522   1.407       .  A
C522        F523   1.358       .  S
C527        C528   1.409       .  A
C527        C532   1.401       .  A
C527        F534   1.358       .  S
C528        C529   1.396       .  A
C529        C530   1.400       .  A
C529        F536   1.357   1_554  S
C530        C531   1.416       .  A
C530        F535   1.352       .  S
C531        C532   1.402       .  A
C532        F533   1.344       .  S
C537        C538   1.406       .  A
C537        C542   1.395   1_556  A
C537        F544   1.358       .  S
C538        C539   1.416       .  A
C539        C540   1.395       .  A
C539        F546   1.356       .  S
C540        C541   1.393   1_556  A
C540        F545   1.356       .  S
C541        C542   1.412       .  A
C542        F543   1.358       .  S
C547        C548   1.406       .  A
C547        C552   1.387       .  A
C547        F554   1.343       .  S
C548        C549   1.395       .  A
C549        C550   1.402       .  A
C549        F556   1.357       .  S
C550        C551   1.416       .  A
C550        F555   1.354       .  S
C551        C552   1.388       .  A
C552        F553   1.358   1_554  S
C557        C558   1.402       .  A
C557        C562   1.401       .  A
C557        F564   1.354       .  S
C558        C559   1.408       .  A
C559        C560   1.407       .  A
C559        F566   1.352       .  S
C560        C561   1.408       .  A
C560        F565   1.357       .  S
C561        C562   1.417       .  A
C562        F563   1.358       .  S
C567        C568   1.411       .  A
C567        C572   1.406       .  A
C567        F574   1.358       .  S
C568        C569   1.418   1_545  A
C569        C570   1.401       .  A
C569        F576   1.356       .  S
C570        C571   1.398   1_565  A
C570        F575   1.354       .  S
C571        C572   1.398       .  A
C572        F573   1.354       .  S
C577        C578   1.414       .  A
C577        C582   1.405       .  A
C577        F584   1.357       .  S
C578        C579   1.409       .  A
C579        C580   1.400       .  A
C579        F586   1.356       .  S
C580        C581   1.404       .  A
C580        F585   1.355       .  S
C581        C582   1.404       .  A
C582        F583   1.356       .  S
C587        C588   1.411   1_565  A
C587        C592   1.388       .  A
C587        F594   1.358       .  S
C588        C589   1.410       .  A
C589        C590   1.395       .  A
C589        F596   1.353       .  S
C590        C591   1.390       .  A
C590        F595   1.355       .  S
C591        C592   1.406   1_545  A
C592        F593   1.355       .  S
C597        C598   1.395       .  A
C597        C602   1.393       .  A
C597        F604   1.356       .  S
C598        C599   1.405       .  A
C599        C600   1.383       .  A
C599        F606   1.359       .  S
C600        C601   1.399       .  A
C600        F605   1.359       .  S
C601        C602   1.409       .  A
C602        F603   1.357       .  S
C607        C608   1.416       .  A
C607        C612   1.397       .  A
C607        F614   1.353       .  S
C608        C609   1.412   1_556  A
C609        C610   1.400       .  A
C609        F616   1.345       .  S
C610        C611   1.396       .  A
C610        F615   1.357       .  S
C611        C612   1.404   1_554  A
C612        F613   1.357       .  S
C617        C618   1.398       .  A
C617        C622   1.409       .  A
C617        F624   1.354       .  S
C618        C619   1.414       .  A
C619        C620   1.404       .  A
C619        F626   1.358       .  S
C620        C621   1.406       .  A
C620        F625   1.356       .  S
C621        C622   1.412       .  A
C622        F623   1.356   1_655  S
C627        C628   1.392       .  A
C627        C632   1.378   1_556  A
C627        F634   1.352   1_556  S
C628        C629   1.391       .  A
C629        C630   1.392       .  A
C629        F636   1.349       .  S
C630        C631   1.413       .  A
C630        F635   1.359       .  S
C631        C632   1.401   1_556  A
C632        F633   1.359       .  S
C637        C638   1.401       .  A
C637        C642   1.380       .  A
C637        F644   1.358       .  S
C638        C639   1.408       .  A
C639        C640   1.394       .  A
C639        F646   1.357       .  S
C640        C641   1.397       .  A
C640        F645   1.358       .  S
C641        C642   1.400       .  A
C642        F643   1.354       .  S
C647        C648   1.417   1_655  A
C647        C652   1.405   1_565  A
C647        F654   1.358       .  S
C648        C649   1.413       .  A
C649        C650   1.409   1_565  A
C649        F656   1.355       .  S
C650        C651   1.406   1_455  A
C650        F655   1.356       .  S
C651        C652   1.403       .  A
C652        F653   1.352       .  S
C657        C658   1.399       .  A
C657        C662   1.391       .  A
C657        F664   1.353       .  S
C658        C659   1.414       .  A
C659        C660   1.413       .  A
C659        F666   1.355       .  S
C660        C661   1.405       .  A
C660        F665   1.357       .  S
C661        C662   1.397       .  A
C662        F663   1.350       .  S
C667        C668   1.391       .  A
C667        C672   1.406   1_565  A
C667        F674   1.354       .  S
C668        C669   1.415       .  A
C669        C670   1.392   1_565  A
C669        F676   1.358       .  S
C670        C671   1.395       .  A
C670        F675   1.353       .  S
C671        C672   1.407       .  A
C672        F673   1.355       .  S
