geometry optimzed in LAMMPS
_audit_creation_date              2020-11-30 
_audit_creation_method            'lammps2cif' 
_symmetry_space_group_name_H-M    'P1' 
_symmetry_Int_Tables_number       1 
_symmetry_cell_setting            triclinic 
loop_ 
_symmetry_equiv_pos_as_xyz 
  x,y,z 
_cell_length_a                    25.76300277 
_cell_length_b                    25.761126580948684 
_cell_length_c                    25.739682330357116 
_cell_angle_alpha                 91.45176524920439 
_cell_angle_beta                  93.69646718540349 
_cell_angle_gamma                 90.95560062902773 
loop_ 
_atom_site_label 
_atom_site_type_symbol 
_atom_site_fract_x 
_atom_site_fract_y 
_atom_site_fract_z 
_atom_site_charge 
O1          O  0.59020500  0.56009798  0.02291076    -0.80100
O2          O  0.35781910  0.42775220  0.97237339    -0.80100
O3          O  0.52771812  0.39676604  0.94691487    -0.80100
O4          O  0.45026635  0.55806327  0.89488081    -0.80100
O5          O  0.44572606  0.37778650  0.95724770    -0.80200
O6          O  0.51651812  0.57887200  0.94997947    -0.80100
O7          O  0.37150110  0.48017406  0.90759060    -0.80100
O8          O  0.57881935  0.49372807  0.96650056    -0.80100
C9          C  0.60861751  0.53061111  0.98828257     1.09600
C10         C  0.34364636  0.44645063  0.92896440     1.09500
C11         C  0.48963395  0.36532647  0.94090342     1.09600
C12         C  0.48933279  0.58698075  0.90831580     1.09500
O13         O  0.48677727  0.57697305  0.05375522    -0.80100
O14         O  0.40595964  0.37458662  0.05147039    -0.80200
O15         O  0.58898081  0.42297796  0.03878244    -0.80100
O16         O  0.35399832  0.52657447  0.00355254    -0.80100
O17         O  0.39141647  0.47861865  0.06417410    -0.80100
O18         O  0.54734398  0.48651231  0.07453332    -0.80100
O19         O  0.42997684  0.60258970  0.99210575    -0.80000
O20         O  0.49194353  0.38512281  0.04627881    -0.80100
Co21       Co  0.52336769  0.52888906  0.00937959     1.51500
Co22       Co  0.42480046  0.43139690  0.01290010     1.51700
Co23       Co  0.52648842  0.44668937  0.00486505     1.51600
Co24       Co  0.40577127  0.53781531  0.95124456     1.51500
O25         O  0.46061801  0.48666420  0.98164277    -1.42000
C26         C  0.46077894  0.61233924  0.03178002     1.09500
C27         C  0.45174975  0.35785572  0.05928579     1.09600
C28         C  0.58901992  0.45850231  0.07373544     1.09600
C29         C  0.35273266  0.50534481  0.04713116     1.09500
N30         N  0.11305108  0.49380159  0.15951759    -0.03400
C31         C  0.16099898  0.51468851  0.14848847    -0.00800
C32         C  0.18073640  0.54860704  0.18728989    -0.23700
C33         C  0.14724226  0.54795020  0.22526737    -0.23900
C34         C  0.10731131  0.51389984  0.20891273    -0.00900
H35         H  0.21860855  0.56775610  0.18985120     0.12900
H36         H  0.15414504  0.56607777  0.26357192     0.12900
N37         N  0.84119833  0.52713614  0.14678847    -0.03400
C38         C  0.79495523  0.54888616  0.12925061    -0.00800
C39         C  0.79449320  0.60038021  0.14655824    -0.23700
C40         C  0.83275557  0.60583943  0.18530223    -0.23900
C41         C  0.85642330  0.55825630  0.18879750    -0.00900
H42         H  0.76383647  0.62801506  0.13947021     0.12900
H43         H  0.83513712  0.63707397  0.21434637     0.12900
N44         N  0.08438865  0.43583105  0.88798846    -0.03400
C45         C  0.05697574  0.41651617  0.84441411    -0.00800
C46         C  0.07025238  0.36567695  0.83443978    -0.23700
C47         C  0.11334458  0.35678094  0.86555766    -0.23900
C48         C  0.12439271  0.40212727  0.89461685    -0.00900
H49         H  0.05918071  0.34244779  0.79972566     0.12900
H50         H  0.13901383  0.32485812  0.85883009     0.12900
N51         N  0.84268509  0.55646882  0.88383625    -0.03400
C52         C  0.84510929  0.56668143  0.83159575    -0.00800
C53         C  0.80497267  0.59809084  0.81436451    -0.23700
C54         C  0.77464106  0.60591496  0.85453588    -0.23900
C55         C  0.79657620  0.57913996  0.89580774    -0.00900
H56         H  0.79563022  0.60948949  0.77468160     0.12900
H57         H  0.73688331  0.62389802  0.85205089     0.12900
N58         N  0.96453349  0.48693314  0.93736622    -0.36600
N59         N  0.05079301  0.47745287  0.02490506    -0.57100
N60         N  0.97663715  0.50462852  0.10317447    -0.36500
N61         N  0.88715102  0.51062631  0.01498184    -0.57100
C62         C  0.01215539  0.48993521  0.91755983     0.27000
C63         C  0.93227156  0.51908461  0.90941771     0.27000
C64         C  0.01586600  0.48294776  0.13266899     0.27000
C65         C  0.93118888  0.49591435  0.12637252     0.27000
C66         C  0.06982481  0.44960294  0.98496408     0.35700
C67         C  0.07963031  0.46539163  0.06897212     0.35700
C68         C  0.87557096  0.54344014  0.97565297     0.35700
C69         C  0.87732968  0.53745166  0.05930445     0.35700
C70         C  0.01097275  0.52612667  0.87901266    -0.21800
C71         C  0.96127017  0.54479388  0.87440920    -0.21800
C72         C  0.99412186  0.45674834  0.17250586    -0.21800
C73         C  0.94144221  0.46634905  0.16972986    -0.21800
C74         C  0.10798616  0.41680758  0.00550621    -0.22900
C75         C  0.11468386  0.42769116  0.05794300    -0.22900
C76         C  0.86395540  0.59181920  0.99559159    -0.22900
C77         C  0.86403327  0.58788380  0.04840790    -0.22900
C78         C  0.05563927  0.45823910  0.93092532    -0.18200
C79         C  0.88106774  0.53331569  0.92196211    -0.18200
C80         C  0.88201502  0.51703183  0.10987402    -0.18200
C81         C  0.06934940  0.48087167  0.12038039    -0.18200
H82         H  0.04362197  0.54083923  0.85929678     0.14700
H83         H  0.95024444  0.57808914  0.85250039     0.14700
H84         H  0.01279892  0.42926996  0.19797720     0.14700
H85         H  0.91401583  0.45084118  0.19538255     0.14700
H86         H  0.12801852  0.38587324  0.98703826     0.13000
H87         H  0.13955084  0.40700071  0.08546577     0.13000
H88         H  0.85944229  0.62713848  0.97430351     0.13000
H89         H  0.85901498  0.61967579  0.07562482     0.13000
H90         H  0.95418085  0.46204364  0.96650666     0.26200
H91         H  0.98120214  0.52731580  0.07064478     0.26200
O92         O  0.98051314  0.38513322  0.50474340    -0.80100
O93         O  0.93920886  0.47677881  0.61991561    -0.80100
O94         O  0.04739997  0.48851411  0.60437867    -0.80100
O95         O  0.86459756  0.41999283  0.52402416    -0.80100
O96         O  0.00936706  0.55492667  0.64369724    -0.80200
O97         O  0.90008864  0.40154084  0.45135902    -0.80100
O98         O  0.86307456  0.50323358  0.59424995    -0.80100
O99         O  0.05683352  0.40990323  0.52995392    -0.80100
C100        C  0.02473207  0.37331659  0.52064544     1.09600
C101        C  0.89453971  0.48913776  0.63114747     1.09500
C102        C  0.03776851  0.51508570  0.64615688     1.09600
C103        C  0.87784489  0.38603081  0.49137050     1.09500
O104        O  0.94523146  0.50254525  0.41732463    -0.80100
O105        O  0.99587913  0.59182360  0.54666255    -0.80200
O106        O  0.04601597  0.48065586  0.44176509    -0.80100
O107        O  0.87632361  0.57332226  0.50850450    -0.80100
O108        O  0.91576614  0.58493734  0.58597772    -0.80100
O109        O  0.99833875  0.41400100  0.40593812    -0.80100
O110        O  0.86405045  0.49261853  0.43596754    -0.80000
O111        O  0.06427719  0.56189292  0.51649575    -0.80100
Co112      Co  0.96629264  0.44560665  0.46278398     1.51500
Co113      Co  0.97256436  0.53113493  0.58140120     1.51700
Co114      Co  0.04081501  0.48643986  0.52273650     1.51600
Co115      Co  0.87186884  0.49648357  0.51556579     1.51500
O116        O  0.95353675  0.49175233  0.51946328    -1.42000
C117        C  0.89773133  0.50622729  0.40448032     1.09500
C118        C  0.03840127  0.60044686  0.52924066     1.09600
C119        C  0.03304536  0.44918876  0.40241166     1.09600
C120        C  0.89305491  0.60389341  0.54538651     1.09500
N121        N  0.54076470  0.84619952  0.12129237    -0.03400
C122        C  0.56587236  0.85550633  0.16928781    -0.00800
C123        C  0.59847005  0.81519437  0.18251511    -0.23700
C124        C  0.59129109  0.77820450  0.14419452    -0.23900
C125        C  0.55591529  0.79758936  0.10753234    -0.00900
H126        H  0.61904181  0.80978466  0.21997122     0.12900
H127        H  0.60593206  0.73907128  0.14559266     0.12900
N128        N  0.44567205  0.10470841  0.11822694    -0.03400
C129        C  0.42245778  0.14450503  0.09166686    -0.00800
C130        C  0.37291043  0.15271279  0.10677122    -0.23700
C131        C  0.36723950  0.12328174  0.14872889    -0.23900
C132        C  0.41254003  0.09572395  0.15710519    -0.00900
H133        H  0.34820301  0.18485132  0.09601088     0.12900
H134        H  0.33705304  0.12899265  0.17552562     0.12900
N135        N  0.53084054  0.11046050  0.86854384    -0.03400
C136        C  0.54588866  0.16083804  0.88163947    -0.00800
C137        C  0.58895166  0.17590718  0.85624024    -0.23700
C138        C  0.59977377  0.13622591  0.82382495    -0.23900
C139        C  0.56175222  0.09853951  0.82849740    -0.00900
H140        H  0.60701432  0.21421261  0.85699404     0.12900
H141        H  0.62607598  0.13908093  0.79277554     0.12900
N142        N  0.53487733  0.84195490  0.85206822    -0.03400
C143        C  0.56313442  0.85698011  0.81133310    -0.00800
C144        C  0.61233547  0.83596603  0.81645422    -0.23700
C145        C  0.61047079  0.79902973  0.85287219    -0.23900
C146        C  0.55957421  0.79696945  0.86725660    -0.00900
H147        H  0.64290596  0.83837849  0.78968184     0.12900
H148        H  0.64011999  0.77027625  0.85968308     0.12900
N149        N  0.48701068  0.05523962  0.99439853    -0.36600
N150        N  0.51717029  0.97609574  0.91269310    -0.57100
N151        N  0.51547909  0.89375806  0.98719701    -0.36500
N152        N  0.50113396  0.97549438  0.07347234    -0.57100
C153        C  0.51675694  0.07990918  0.96046185     0.27000
C154        C  0.49684773  0.07828148  0.04230154     0.27000
C155        C  0.54228418  0.87678041  0.94635135     0.27000
C156        C  0.54316853  0.88130965  0.03165045     0.27000
C157        C  0.50124221  0.01883332  0.88679087     0.35700
C158        C  0.50763063  0.93387300  0.88025892     0.35700
C159        C  0.47183483  0.00991253  0.09899568     0.35700
C160        C  0.49602846  0.92889906  0.09592803     0.35700
C161        C  0.54898216  0.11548814  0.98860973    -0.21800
C162        C  0.53511088  0.11603243  0.03970044    -0.21800
C163        C  0.58910340  0.85663086  0.96547051    -0.21800
C164        C  0.58966746  0.86001259  0.01906244    -0.21800
C165        C  0.47860355  0.00349864  0.83865448    -0.22900
C166        C  0.48318478  0.95016889  0.83416110    -0.22900
C167        C  0.44631552  0.98345636  0.13653510    -0.22900
C168        C  0.46189026  0.93252009  0.13467103    -0.22900
C169        C  0.51348954  0.07075115  0.90502502    -0.18200
C170        C  0.47242129  0.06427295  0.08824718    -0.18200
C171        C  0.52509489  0.88510915  0.08275164    -0.18200
C172        C  0.52567528  0.88290868  0.89265905    -0.18200
H173        H  0.58221891  0.13538030  0.97489228     0.14700
H174        H  0.55332015  0.13901462  0.07184430     0.14700
H175        H  0.62132235  0.84408635  0.94388431     0.14700
H176        H  0.62158926  0.84998442  0.04596690     0.14700
H177        H  0.45947897  0.02787670  0.81013415     0.13000
H178        H  0.46895166  0.92713706  0.80084546     0.13000
H179        H  0.41847257  0.99713309  0.16220913     0.13000
H180        H  0.44780179  0.90142375  0.15758082     0.13000
H181        H  0.45860585  0.02651457  0.98483017     0.26200
H182        H  0.47816668  0.90945384  0.98471589     0.26200
N183        N  0.13030579  0.85508253  0.52762630    -0.03400
C184        C  0.12312846  0.80618232  0.54697133    -0.00800
C185        C  0.16291660  0.79353862  0.58227186    -0.23700
C186        C  0.19792269  0.83301963  0.58333064    -0.23900
C187        C  0.17936185  0.86881042  0.54775371    -0.00900
H188        H  0.16834238  0.75675480  0.60116745     0.12900
H189        H  0.23688192  0.83143271  0.60167400     0.12900
N190        N  0.86714039  0.13128086  0.55217860    -0.03400
C191        C  0.82585510  0.12435691  0.58210581    -0.00800
C192        C  0.83776557  0.14579801  0.63134460    -0.23700
C193        C  0.87843036  0.17895347  0.62641202    -0.23900
C194        C  0.89071386  0.17546406  0.57470468    -0.00900
H195        H  0.81432519  0.14669239  0.66460499     0.12900
H196        H  0.88693105  0.21061126  0.65407015     0.12900
N197        N  0.12299410  0.12623359  0.49721645    -0.03400
C198        C  0.11577842  0.17946508  0.49593264    -0.00800
C199        C  0.15896200  0.20547497  0.48019998    -0.23700
C200        C  0.19596998  0.16995262  0.47475968    -0.23900
C201        C  0.17476227  0.12278258  0.48715054    -0.00900
H202        H  0.16416058  0.24708524  0.47720049     0.12900
H203        H  0.23609052  0.17823077  0.46712655     0.12900
N204        N  0.86860446  0.85917248  0.48735047    -0.03400
C205        C  0.83713741  0.87641875  0.44691691    -0.00800
C206        C  0.83848475  0.84373250  0.40379405    -0.23700
C207        C  0.86722258  0.80234748  0.41881878    -0.23900
C208        C  0.88433479  0.81147933  0.47032042    -0.00900
H209        H  0.81296729  0.84467678  0.36871077     0.12900
H210        H  0.86911430  0.76618531  0.39671822     0.12900
N211        N  0.91467469  0.99106020  0.52975349    -0.36600
N212        N  0.99621777  0.07605583  0.53696004    -0.57100
N213        N  0.07792418  0.98845972  0.52081786    -0.36500
N214        N  0.99452656  0.89988338  0.50475445    -0.57100
C215        C  0.88601321  0.03204857  0.54571141     0.27000
C216        C  0.88564597  0.94671609  0.53210443     0.27000
C217        C  0.09761943  0.03000449  0.49661011     0.27000
C218        C  0.09933731  0.94462858  0.50089468     0.27000
C219        C  0.94984799  0.09715245  0.52094131     0.35700
C220        C  0.03125755  0.09462895  0.50449685     0.35700
C221        C  0.95414457  0.88349811  0.53149060     0.35700
C222        C  0.03781148  0.88380414  0.53202790     0.35700
C223        C  0.83894165  0.01143203  0.56091450    -0.21800
C224        C  0.83860984  0.95843166  0.55136159    -0.21800
C225        C  0.12728459  0.01141290  0.45735129    -0.21800
C226        C  0.13004426  0.95803299  0.46125397    -0.21800
C227        C  0.95498679  0.12620610  0.47730590    -0.22900
C228        C  0.00593979  0.12184302  0.46535325    -0.22900
C229        C  0.97141033  0.86027854  0.57693342    -0.22900
C230        C  0.02485697  0.86133432  0.57763806    -0.22900
C231        C  0.90121100  0.08641066  0.54145462    -0.18200
C232        C  0.90208111  0.89574065  0.51936819    -0.18200
C233        C  0.08872907  0.89319242  0.51703521    -0.18200
C234        C  0.08504349  0.08347389  0.50557262    -0.18200
H235        H  0.80708900  0.03031613  0.57775618     0.14700
H236        H  0.80815664  0.93131624  0.56026947     0.14700
H237        H  0.14161895  0.03356332  0.42613369     0.14700
H238        H  0.14818148  0.93197047  0.43468400     0.14700
H239        H  0.92419567  0.14418851  0.45391997     0.13000
H240        H  0.02216032  0.13362134  0.42976722     0.13000
H241        H  0.94792876  0.84667345  0.60739055     0.13000
H242        H  0.05135290  0.85101471  0.60982216     0.13000
H243        H  0.95110723  0.99284503  0.51442943     0.26200
H244        H  0.05313460  0.99003287  0.55137490     0.26200
O245        O  0.49077230  0.91699583  0.40521070    -0.80100
O246        O  0.52397745  0.90174348  0.55628094    -0.80100
O247        O  0.61823399  0.99235679  0.43993915    -0.80100
O248        O  0.41399486  0.92706815  0.50623282    -0.80100
O249        O  0.59288875  0.92210361  0.47765678    -0.80200
O250        O  0.38483011  0.93087041  0.42432179    -0.80100
O251        O  0.46829963  0.94813283  0.59646591    -0.80100
O252        O  0.53450829  0.98323987  0.37470132    -0.80100
C253        C  0.51768266  0.93672859  0.37009490     1.09600
C254        C  0.49887528  0.91003200  0.59657777     1.09500
C255        C  0.62681892  0.94613827  0.45392559     1.09600
C256        C  0.37645806  0.91932760  0.47076807     1.09500
O257        O  0.39951006  0.02346913  0.47745387    -0.80100
O258        O  0.62012120  0.01992083  0.53140581    -0.80200
O259        O  0.49090813  0.07573312  0.41150818    -0.80100
O260        O  0.48793675  0.05327240  0.57889270    -0.80100
O261        O  0.55211947  0.00138636  0.60041602    -0.80100
O262        O  0.44170479  0.00928652  0.38444023    -0.80100
O263        O  0.38847860  0.01313150  0.56146800    -0.80000
O264        O  0.57786248  0.08226972  0.48913536    -0.80100
Co265      Co  0.44883529  0.96618955  0.44719060     1.51500
Co266      Co  0.56868136  0.96135706  0.53744076     1.51700
Co267      Co  0.55168584  0.03222405  0.43366647     1.51600
Co268      Co  0.45303936  0.99520212  0.53592178     1.51500
O269        O  0.51308946  0.99159688  0.48850482    -1.42000
C270        C  0.37043484  0.02703339  0.51686500     1.09500
C271        C  0.61635888  0.06699170  0.51784560     1.09600
C272        C  0.45926610  0.05443746  0.37688454     1.09600
C273        C  0.52356915  0.03884253  0.61192474     1.09500
C274        C  0.78656846  0.90018309  0.45436392    -0.06100
C275        C  0.75167792  0.87214757  0.48296262    -0.17200
C276        C  0.69872260  0.88362421  0.48120627     0.11100
C277        C  0.68023088  0.92581748  0.45124543    -0.06000
C278        C  0.71571231  0.95381501  0.42262570    -0.17200
C279        C  0.76828054  0.94116210  0.42358990     0.11200
S280        S  0.65636229  0.84284551  0.51685053    -0.32200
S281        S  0.81001099  0.97715867  0.38332686    -0.32200
H282        H  0.85601361  0.97027347  0.41469738     0.29200
H283        H  0.69232756  0.80391116  0.52943384     0.29200
H284        H  0.76586145  0.83934740  0.50485546     0.19800
H285        H  0.70257404  0.98605858  0.39927669     0.19800
C286        C  0.31561878  0.04492415  0.50928392    -0.06100
C287        C  0.28794145  0.05828674  0.55304673    -0.17200
C288        C  0.23623502  0.07537491  0.54749608     0.11100
C289        C  0.21215679  0.08093292  0.49735394    -0.06000
C290        C  0.23844634  0.06440243  0.45428537    -0.17200
C291        C  0.28850063  0.04493459  0.45952479     0.11200
S292        S  0.20263213  0.09440833  0.60401831    -0.32200
S293        S  0.31568633  0.02179218  0.40091232    -0.32200
H294        H  0.26851259  0.01467735  0.37063742     0.29200
H295        H  0.24117236  0.07888634  0.64133397     0.29200
H296        H  0.30713612  0.05640227  0.59158503     0.19800
H297        H  0.22121184  0.07105874  0.41555607     0.19800
C298        C  0.76974448  0.11890303  0.56042890    -0.06100
C299        C  0.72911619  0.12872307  0.59387945    -0.17200
C300        C  0.67682172  0.11977057  0.57810567     0.11100
C301        C  0.66340427  0.09944822  0.52804722    -0.06000
C302        C  0.70230687  0.09396022  0.49279408    -0.17200
C303        C  0.75501958  0.10423758  0.50779040     0.11200
S304        S  0.62893772  0.13255057  0.62460195    -0.32200
S305        S  0.80173949  0.09565096  0.45908159    -0.32200
H306        H  0.76604183  0.08770694  0.41582233     0.29200
H307        H  0.58662708  0.13654492  0.58764696     0.29200
H308        H  0.73691473  0.14268135  0.63342220     0.19800
H309        H  0.69160728  0.07768498  0.45431135     0.19800
C310        C  0.22039780  0.89631361  0.52057611    -0.06100
C311        C  0.23198187  0.87851417  0.47041571    -0.17200
C312        C  0.28235445  0.88441883  0.45250926     0.11100
C313        C  0.32316945  0.90546892  0.48660262    -0.06000
C314        C  0.31109898  0.92115209  0.53704777    -0.17200
C315        C  0.26018142  0.92161946  0.55210190     0.11200
S316        S  0.29309980  0.85917352  0.38828899    -0.32200
S317        S  0.24886339  0.94907929  0.61551306    -0.32200
H318        H  0.19557279  0.95766597  0.60394896     0.29200
H319        H  0.34309935  0.84063931  0.40184385     0.29200
H320        H  0.20281512  0.85652205  0.44654030     0.19800
H321        H  0.34132347  0.93453105  0.56530619     0.19800
C322        C  0.54187142  0.87032744  0.75684982    -0.06100
C323        C  0.57762300  0.89226395  0.72398254    -0.17200
C324        C  0.56666192  0.89704524  0.67021993     0.11100
C325        C  0.51557250  0.88783774  0.64831054    -0.06000
C326        C  0.47875315  0.86701001  0.68062837    -0.17200
C327        C  0.49211243  0.85494346  0.73324370     0.11200
S328        S  0.61938514  0.91356788  0.63018522    -0.32200
S329        S  0.44557263  0.81566813  0.76507343    -0.32200
H330        H  0.44546235  0.84480506  0.81166162     0.29200
H331        H  0.65851720  0.92118227  0.67045291     0.29200
H332        H  0.61594743  0.90374529  0.74012498     0.19800
H333        H  0.43957067  0.85876246  0.66432421     0.19800
C334        C  0.54362745  0.07384951  0.77783156    -0.06100
C335        C  0.50181092  0.09593576  0.74847441    -0.17200
C336        C  0.49450278  0.08762748  0.69411914     0.11100
C337        C  0.53022348  0.05711461  0.66785921    -0.06000
C338        C  0.57201404  0.03556455  0.69815902    -0.17200
C339        C  0.57801151  0.04216134  0.75200245     0.11200
S340        S  0.44046430  0.11862212  0.66077037    -0.32200
S341        S  0.63321621  0.01260883  0.78560711    -0.32200
H342        H  0.61089082  0.00978438  0.83395058     0.29200
H343        H  0.47094517  0.13935629  0.62257465     0.29200
H344        H  0.47642209  0.12224966  0.76758167     0.19800
H345        H  0.60102874  0.01276463  0.68000385     0.19800
C346        C  0.42756264  0.08221708  0.21247193    -0.06100
C347        C  0.47512978  0.10022419  0.23733040    -0.17200
C348        C  0.48552661  0.09667615  0.29192989     0.11100
C349        C  0.44772952  0.07461561  0.32306263    -0.06000
C350        C  0.40059004  0.05729259  0.29756098    -0.17200
C351        C  0.39023152  0.05981708  0.24389103     0.11200
S352        S  0.54842440  0.11851135  0.31897329    -0.32200
S353        S  0.32817433  0.03158092  0.21924737    -0.32200
H354        H  0.33766882  0.02641253  0.16635170     0.29200
H355        H  0.52817211  0.14699732  0.36013601     0.29200
H356        H  0.50383360  0.11841343  0.21439481     0.19800
H357        H  0.37194314  0.03821697  0.31935384     0.19800
C358        C  0.52874820  0.91065802  0.31959130    -0.06100
C359        C  0.57243397  0.93006322  0.29518094    -0.17200
C360        C  0.58054697  0.91876043  0.24308854     0.11100
C361        C  0.54613838  0.88485237  0.21382526    -0.06000
C362        C  0.50311119  0.86394161  0.23810272    -0.17200
C363        C  0.49360688  0.87707545  0.29010780     0.11200
S364        S  0.63767339  0.94629740  0.21656915    -0.32200
S365        S  0.43615427  0.85033551  0.31616449    -0.32200
H366        H  0.46314791  0.83238107  0.36125359     0.29200
H367        H  0.61759417  0.94406167  0.16437730     0.29200
H368        H  0.60027231  0.95589735  0.31659860     0.19800
H369        H  0.47818691  0.83508214  0.21715661     0.19800
C370        C  0.88043874  0.33018511  0.50833214    -0.06100
C371        C  0.90958808  0.32102724  0.55527781    -0.17200
C372        C  0.92016969  0.27081429  0.57247825     0.11100
C373        C  0.89489977  0.22683705  0.54707368    -0.06000
C374        C  0.86515111  0.23565442  0.50003677    -0.17200
C375        C  0.85880458  0.28625253  0.47988266     0.11200
S376        S  0.96793906  0.26596340  0.62660567    -0.32200
S377        S  0.82059872  0.29192519  0.41922167    -0.32200
H378        H  0.80961561  0.34493543  0.42442855     0.29200
H379        H  0.98346114  0.21557641  0.61290119     0.29200
H380        H  0.92711531  0.35367076  0.57777706     0.19800
H381        H  0.84513089  0.20323841  0.47956044     0.19800
C382        C  0.89594737  0.66105905  0.53600897    -0.06100
C383        C  0.92932440  0.67726445  0.49835854    -0.17200
C384        C  0.93250487  0.72885825  0.48320420     0.11100
C385        C  0.89873978  0.76600842  0.50291898    -0.06000
C386        C  0.86707072  0.75103227  0.54292776    -0.17200
C387        C  0.86617392  0.69926459  0.56041613     0.11200
S388        S  0.97723368  0.74422471  0.43441051    -0.32200
S389        S  0.82250519  0.68354250  0.60985922    -0.32200
H390        H  0.85032181  0.64127118  0.62980510     0.29200
H391        H  0.98287294  0.79719418  0.44867886     0.29200
H392        H  0.95307663  0.64916521  0.47970803     0.19800
H393        H  0.84019898  0.77867553  0.55798888     0.19800
C394        C  0.07425118  0.21313835  0.51483084    -0.06100
C395        C  0.04136292  0.23379936  0.47555776    -0.17200
C396        C  0.02078361  0.28323252  0.47965991     0.11100
C397        C  0.03831840  0.31723476  0.52160606    -0.06000
C398        C  0.07024222  0.29697212  0.56218469    -0.17200
C399        C  0.08583228  0.24466432  0.56034111     0.11200
S400        S  0.97854898  0.30320699  0.42547002    -0.32200
S401        S  0.12691541  0.22192600  0.61388121    -0.32200
H402        H  0.11515441  0.16913261  0.60279088     0.29200
H403        H  0.96119321  0.25289400  0.40923298     0.29200
H404        H  0.03763211  0.21493011  0.43762193     0.19800
H405        H  0.08297417  0.32176167  0.59535461     0.19800
C406        C  0.05589254  0.65607756  0.52822635    -0.06100
C407        C  0.08432478  0.67571640  0.48798741    -0.17200
C408        C  0.09907826  0.72892235  0.48762514     0.11100
C409        C  0.08642788  0.76335759  0.52866014    -0.06000
C410        C  0.05656604  0.74342507  0.56728381    -0.17200
C411        C  0.04106907  0.69148200  0.56769631     0.11200
S412        S  0.13731150  0.75038042  0.43594009    -0.32200
S413        S  0.00787959  0.67153239  0.62399856    -0.32200
H414        H  0.98582327  0.71999177  0.63469955     0.29200
H415        H  0.11923167  0.80157629  0.43735068     0.29200
H416        H  0.09504145  0.64976686  0.45684790     0.19800
H417        H  0.05129167  0.76653813  0.60195096     0.19800
C418        C  0.87341664  0.54028066  0.79023234    -0.06100
C419        C  0.85697538  0.48965372  0.77356258    -0.17200
C420        C  0.86291452  0.47114481  0.72204649     0.11100
C421        C  0.88658385  0.50348974  0.68651993    -0.06000
C422        C  0.90573531  0.55238387  0.70448185    -0.17200
C423        C  0.89872947  0.57152171  0.75460340     0.11200
S424        S  0.83593466  0.40799920  0.70293075    -0.32200
S425        S  0.91742668  0.63914138  0.76718851    -0.32200
H426        H  0.90404996  0.64481412  0.81898064     0.29200
H427        H  0.86802651  0.39840222  0.66174090     0.29200
H428        H  0.83516319  0.46619396  0.79922386     0.14700
H429        H  0.92428620  0.57778446  0.67845545     0.19800
C430        C  0.04738963  0.44791320  0.79726709    -0.06100
C431        C  0.08408229  0.48650127  0.78554293    -0.17200
C432        C  0.08267232  0.50982291  0.73682074     0.11100
C433        C  0.04672417  0.49082220  0.69716382    -0.06000
C434        C  0.01304529  0.44948758  0.70798778    -0.17200
C435        C  0.01010139  0.43109635  0.75800589     0.11200
S436        S  0.13006849  0.56047531  0.72718767    -0.32200
S437        S  0.95944717  0.38410578  0.76886413    -0.32200
H438        H  0.95644325  0.39714428  0.82200397     0.29200
H439        H  0.12287768  0.56283029  0.67277631     0.29200
H440        H  0.11506417  0.49762306  0.81382486     0.19800
H441        H  0.98816720  0.43084306  0.67777068     0.19800
C442        C  0.87008778  0.53919379  0.24211748    -0.06100
C443        C  0.90177134  0.57219900  0.27534811    -0.17200
C444        C  0.90734385  0.56467688  0.32891699     0.11100
C445        C  0.88332783  0.52141781  0.35054036    -0.06000
C446        C  0.85174786  0.48803220  0.31789091    -0.17200
C447        C  0.84404023  0.49674576  0.26430687     0.11200
S448        S  0.94156589  0.61421283  0.36868270    -0.32200
S449        S  0.79621816  0.45542074  0.22882954    -0.32200
H450        H  0.82765403  0.44109745  0.18865565     0.29200
H451        H  0.90747322  0.61004723  0.40888642     0.29200
H452        H  0.91964690  0.60636059  0.25980856     0.19800
H453        H  0.83318675  0.45464906  0.33420347     0.19800
C454        C  0.07685898  0.49238509  0.25043734    -0.06100
C455        C  0.08731141  0.44194315  0.26770030    -0.17200
C456        C  0.07274551  0.42584281  0.31663482     0.11100
C457        C  0.05005144  0.46184314  0.35032787    -0.06000
C458        C  0.03923600  0.51178864  0.33264117    -0.17200
C459        C  0.05081904  0.52679773  0.28292368     0.11200
S460        S  0.08673542  0.36016164  0.33478489    -0.32200
S461        S  0.03512426  0.59200743  0.26413559    -0.32200
H462        H  0.03116088  0.58094829  0.21018792     0.29200
H463        H  0.09271731  0.37014841  0.38879918     0.29200
H464        H  0.10867866  0.41571478  0.24377732     0.19800
H465        H  0.02129408  0.53943997  0.35784903     0.19800
C466        C  0.45682745  0.30115832  0.06637791    -0.06100
C467        C  0.43268141  0.26955083  0.02621957    -0.17200
C468        C  0.42984500  0.21570659  0.02941192     0.11100
C469        C  0.44960848  0.19185137  0.07493133    -0.06000
C470        C  0.47790119  0.22271756  0.11348111    -0.17200
C471        C  0.48199266  0.27720208  0.10956974     0.11200
S472        S  0.39293498  0.18019760  0.97776040    -0.32200
S473        S  0.51340883  0.31363564  0.16381825    -0.32200
H474        H  0.52235200  0.35968486  0.13761988     0.29200
H475        H  0.41316091  0.13131265  0.98938589     0.29200
H476        H  0.41352487  0.28722920  0.99258440     0.19800
H477        H  0.49207762  0.20504324  0.14930494     0.19800
C478        C  0.52677856  0.76185504  0.07048890    -0.06100
C479        C  0.47371077  0.75311564  0.07827137    -0.17200
C480        C  0.44928389  0.70520419  0.06367570     0.11100
C481        C  0.47892499  0.66609974  0.04174992    -0.06000
C482        C  0.52914185  0.67790397  0.02744494    -0.17200
C483        C  0.55335487  0.72511730  0.04092412     0.11200
S484        S  0.38252924  0.69261912  0.07710544    -0.32200
S485        S  0.61871648  0.73350557  0.02027881    -0.32200
H486        H  0.63942475  0.76635868  0.06061466     0.29200
H487        H  0.37120500  0.74424131  0.09080110     0.29200
H488        H  0.45312572  0.78140003  0.10059352     0.19800
H489        H  0.55110352  0.64921942  0.00745850     0.19800
C490        C  0.53392791  0.74315038  0.87051712    -0.06100
C491        C  0.55886744  0.69930047  0.84901164    -0.17200
C492        C  0.54265597  0.64787365  0.85657714     0.11100
C493        C  0.49824780  0.63799864  0.88377968    -0.06000
C494        C  0.47021908  0.68098299  0.90124047    -0.17200
C495        C  0.48775168  0.73294600  0.89581075     0.11200
S496        S  0.58200841  0.59620113  0.83288420    -0.32200
S497        S  0.45231495  0.78481367  0.92454663    -0.32200
H498        H  0.41787726  0.75362028  0.95100181     0.29200
H499        H  0.54202431  0.55819301  0.82870373     0.29200
H500        H  0.59251784  0.70423709  0.82654814     0.19800
H501        H  0.43624306  0.67367081  0.92269841     0.19800
C502        C  0.66276072  0.53958948  0.97316340    -0.06100
C503        C  0.68453878  0.58962602  0.98082900    -0.17200
C504        C  0.73272740  0.60268699  0.96238700     0.11100
C505        C  0.76136779  0.56429604  0.93663969    -0.06000
C506        C  0.74287965  0.51270552  0.93531314    -0.17200
C507        C  0.69381306  0.49989361  0.95298008     0.11200
S508        S  0.75243458  0.67035105  0.96995020    -0.32200
S509        S  0.67143388  0.43306821  0.94775056    -0.32200
H510        H  0.72036445  0.41142787  0.94073810     0.29200
H511        H  0.79313212  0.67118376  0.93648533     0.29200
H512        H  0.66236770  0.61997447  0.99848188     0.19800
H513        H  0.76438355  0.48330033  0.91544108     0.19800
C514        C  0.49955759  0.30985309  0.92764136    -0.06100
C515        C  0.46436413  0.27932458  0.89518682    -0.17200
C516        C  0.47317860  0.22593661  0.88565356     0.11100
C517        C  0.51783627  0.20231787  0.90904670    -0.06000
C518        C  0.54950934  0.23218015  0.94492870    -0.17200
C519        C  0.54101369  0.28441725  0.95473353     0.11200
S520        S  0.42808163  0.19074141  0.84104398    -0.32200
S521        S  0.58576644  0.31669156  0.00206316    -0.32200
H522        H  0.59906233  0.27231433  0.03049528     0.29200
H523        H  0.43507369  0.14279385  0.86515560     0.29200
H524        H  0.43054371  0.29718190  0.87653201     0.19800
H525        H  0.58573704  0.21673239  0.96073104     0.19800
C526        C  0.28959030  0.43437159  0.91032003    -0.06100
C527        C  0.25534813  0.47599184  0.90503466    -0.17200
C528        C  0.20110314  0.46836822  0.90518486     0.11100
C529        C  0.18033500  0.41718638  0.90810188    -0.06000
C530        C  0.21538702  0.37637978  0.91640844    -0.17200
C531        C  0.26892846  0.38402543  0.91624503     0.11200
S532        S  0.16090623  0.52498781  0.90762902    -0.32200
S533        S  0.30912554  0.32776112  0.92542098    -0.32200
H534        H  0.35101696  0.34743792  0.89904665     0.29200
H535        H  0.19923289  0.56189567  0.89658561     0.29200
H536        H  0.27147149  0.51509260  0.90521311     0.19800
H537        H  0.20102518  0.33736767  0.92223510     0.19800
C538        C  0.30106110  0.50578754  0.07177818    -0.06100
C539        C  0.28929227  0.46764931  0.10753982    -0.17200
C540        C  0.23962676  0.46355704  0.12739070     0.11100
C541        C  0.19923019  0.49746245  0.11078415    -0.06000
C542        C  0.20992669  0.53320404  0.07266096    -0.17200
C543        C  0.25991928  0.53895010  0.05410765     0.11200
S544        S  0.23190025  0.41778852  0.17831595    -0.32200
S545        S  0.27064413  0.59291419  0.01196633    -0.32200
H546        H  0.21842572  0.60715706  0.00303296     0.29200
H547        H  0.17734227  0.41537047  0.17373890     0.29200
H548        H  0.31917657  0.44105412  0.12076818     0.19800
H549        H  0.18028428  0.56099186  0.06193952     0.19800
C550        C  0.74302138  0.51959088  0.12141556    -0.06100
C551        C  0.69814769  0.54213368  0.14135811    -0.17200
C552        C  0.64766035  0.52138871  0.13064927     0.11100
C553        C  0.64050146  0.47482842  0.10089125    -0.06000
C554        C  0.68558829  0.44865529  0.08675834    -0.17200
C555        C  0.73613647  0.47056557  0.09573443     0.11200
S556        S  0.59319004  0.55600530  0.15470721    -0.32200
S557        S  0.79037989  0.43621578  0.07150856    -0.32200
H558        H  0.76282684  0.39110155  0.05322283     0.29200
H559        H  0.62029454  0.60225506  0.17026772     0.29200
H560        H  0.70192471  0.57689195  0.16563724     0.19800
H561        H  0.68102023  0.41215953  0.06512168     0.19800
loop_ 
_geom_bond_atom_site_label_1 
_geom_bond_atom_site_label_2 
_geom_bond_distance 
_geom_bond_site_symmetry_2 
_ccdc_geom_bond_type 
O1            C9   1.276   1_554  A
O1          Co21   1.896       .  S
O2           C10   1.263       .  A
O2          Co22   1.958   1_556  S
O3           C11   1.261       .  A
O3          Co23   1.947   1_556  S
O4           C12   1.267       .  A
O4          Co24   1.981       .  S
O5           C11   1.275       .  A
O5          Co22   2.067   1_556  S
O6           C12   1.266       .  A
O6          Co21   2.025   1_556  S
O7           C10   1.275       .  A
O7          Co24   1.998       .  S
O8            C9   1.304       .  A
O8          Co23   2.107   1_556  S
C9          C502   1.488       .  S
C10         C526   1.469       .  S
C11         C514   1.491       .  S
C12         C493   1.493       .  S
O13          C26   1.263       .  A
O13         Co21   1.958       .  S
O14          C27   1.268       .  A
O14         Co22   1.864       .  S
O15          C28   1.267       .  A
O15         Co23   1.899       .  S
O16          C29   1.262       .  A
O16         Co24   1.978   1_554  S
O17          C29   1.281       .  A
O17         Co22   2.015       .  S
O18          C28   1.305       .  A
O18         Co21   2.090       .  S
O19          C26   1.269   1_556  A
O19         Co24   2.018       .  S
O20          C27   1.308       .  A
O20         Co23   2.146       .  S
Co21         O25   2.015   1_554  S
Co22         O25   1.907   1_554  S
Co23         O25   2.063   1_554  S
Co24         O25   2.078       .  S
C26         C481   1.465       .  S
C27         C466   1.483       .  S
C28         C553   1.507       .  S
C29         C538   1.511       .  S
N30          C34   1.378       .  A
N30          C31   1.388       .  A
N30          C81   1.489       .  S
C31         C541   1.492       .  S
C31          C32   1.377       .  A
C32          C33   1.345       .  A
C32          H35   1.083       .  S
C33          C34   1.379       .  A
C33          H36   1.083       .  S
C34         C454   1.479       .  S
N37          C41   1.363       .  A
N37          C38   1.379       .  A
N37          C80   1.484       .  S
C38         C550   1.525       .  S
C38          C39   1.389       .  A
C39          C40   1.359       .  A
C39          H42   1.082       .  S
C40          C41   1.381       .  A
C40          H43   1.083       .  S
C41         C442   1.492       .  S
N44          C48   1.364       .  A
N44          C45   1.365       .  A
N44          C78   1.480       .  S
C45         C430   1.485       .  S
C45          C46   1.381       .  A
C46          C47   1.353       .  A
C46          H49   1.083       .  S
C47          C48   1.386       .  A
C47          H50   1.081       .  S
C48         C529   1.503       .  S
N51          C55   1.381       .  A
N51          C52   1.382       .  A
N51          C79   1.490       .  S
C52         C418   1.486       .  S
C52          C53   1.381       .  A
C53          C54   1.349       .  A
C53          H56   1.083       .  S
C54          C55   1.377       .  A
C54          H57   1.083       .  S
C55         C505   1.485       .  S
N58          C63   1.368       .  A
N58          C62   1.360   1_655  A
N58          H90   1.044       .  S
N59          C66   1.361   1_554  A
N59          C67   1.361       .  A
N60          C65   1.366       .  A
N60          C64   1.361   1_655  A
N60          H91   1.045       .  S
N61          C68   1.357   1_554  A
N61          C69   1.359       .  A
C62          C70   1.378       .  A
C62          C78   1.427       .  A
C63          C79   1.430       .  A
C63          C71   1.382       .  A
C64          C72   1.385   1_455  A
C64          C81   1.435       .  A
C65          C80   1.431       .  A
C65          C73   1.381       .  A
C66          C78   1.439       .  A
C66          C74   1.394   1_556  A
C67          C81   1.415       .  A
C67          C75   1.374       .  A
C68          C76   1.381       .  A
C68          C79   1.416       .  A
C69          C77   1.380       .  A
C69          C80   1.415       .  A
C70          C71   1.374   1_455  A
C70          H82   1.078       .  S
C71          H83   1.071       .  S
C72          C73   1.381       .  A
C72          H84   1.075   1_655  S
C73          H85   1.077       .  S
C74          C75   1.371       .  A
C74          H86   1.074   1_554  S
C75          H87   1.081       .  S
C76          C77   1.366   1_556  A
C76          H88   1.078       .  S
C77          H89   1.079       .  S
O92         C100   1.231   1_655  A
O92        Co112   1.944       .  S
O93         C101   1.249       .  A
O93        Co113   1.955       .  S
O94         C102   1.300       .  A
O94        Co114   2.097       .  S
O95         C103   1.264       .  A
O95        Co115   1.995       .  S
O96         C102   1.271       .  A
O96        Co113   1.892   1_455  S
O97         C103   1.280       .  A
O97        Co112   2.034       .  S
O98         C101   1.272       .  A
O98        Co115   2.056       .  S
O99         C100   1.252       .  A
O99        Co114   2.032       .  S
C100        C397   1.493       .  S
C101        C421   1.491       .  S
C102        C433   1.475       .  S
C103        C370   1.515       .  S
O104        C117   1.253       .  A
O104       Co112   1.961       .  S
O105        C118   1.229   1_655  A
O105       Co113   1.927       .  S
O106        C119   1.304       .  A
O106       Co114   2.099       .  S
O107        C120   1.267       .  A
O107       Co115   1.994       .  S
O108        C120   1.276       .  A
O108       Co113   2.039       .  S
O109        C119   1.272   1_655  A
O109       Co112   1.898       .  S
O110        C117   1.276       .  A
O110       Co115   2.045       .  S
O111        C118   1.254       .  A
O111       Co114   2.039       .  S
Co112       O116   1.907       .  S
Co113       O116   1.901       .  S
Co114       O116   2.251   1_455  S
Co115       O116   2.106       .  S
C117        C445   1.478       .  S
C118        C406   1.496       .  S
C119        C457   1.479       .  S
C120        C382   1.500       .  S
N121        C125   1.363       .  A
N121        C122   1.371       .  A
N121        C171   1.471       .  S
C122        C361   1.479       .  S
C122        C123   1.382       .  A
C123        C124   1.356       .  A
C123        H126   1.083       .  S
C124        C125   1.378       .  A
C124        H127   1.083       .  S
C125        C478   1.470       .  S
N128        C132   1.378       .  A
N128        C129   1.371       .  A
N128        C170   1.486       .  S
C129        C469   1.483       .  S
C129        C130   1.376       .  A
C130        C131   1.349       .  A
C130        H133   1.083       .  S
C131        C132   1.384       .  A
C131        H134   1.082       .  S
C132        C346   1.503       .  S
N135        C139   1.374       .  A
N135        C136   1.376       .  A
N135        C169   1.488       .  S
C136        C517   1.488       .  S
C136        C137   1.379       .  A
C137        C138   1.347       .  A
C137        H140   1.083       .  S
C138        C139   1.381       .  A
C138        H141   1.084       .  S
C139        C334   1.481       .  S
N142        C146   1.384       .  A
N142        C143   1.374       .  A
N142        C172   1.498       .  S
C143        C322   1.522       .  S
C143        C144   1.386       .  A
C144        C145   1.355       .  A
C144        H147   1.081       .  S
C145        C146   1.386       .  A
C145        H148   1.082       .  S
C146        C490   1.532       .  S
N149        C154   1.362   1_556  A
N149        C153   1.361       .  A
N149        H181   1.046       .  S
N150        C157   1.357   1_565  A
N150        C158   1.363       .  A
N151        C156   1.357   1_556  A
N151        C155   1.362       .  A
N151        H182   1.048       .  S
N152        C159   1.358   1_565  A
N152        C160   1.353       .  A
C153        C161   1.385       .  A
C153        C169   1.437       .  A
C154        C170   1.426       .  A
C154        C162   1.379       .  A
C155        C163   1.387       .  A
C155        C172   1.434       .  A
C156        C171   1.425       .  A
C156        C164   1.380       .  A
C157        C169   1.430       .  A
C157        C165   1.380       .  A
C158        C172   1.437       .  A
C158        C166   1.385       .  A
C159        C167   1.390   1_545  A
C159        C170   1.434       .  A
C160        C168   1.374       .  A
C160        C171   1.411       .  A
C161        C162   1.385   1_556  A
C161        H173   1.074       .  S
C162        H174   1.082       .  S
C163        C164   1.379   1_556  A
C163        H175   1.078       .  S
C164        H176   1.080       .  S
C165        C166   1.383   1_545  A
C165        H177   1.078       .  S
C166        H178   1.072       .  S
C167        C168   1.379       .  A
C167        H179   1.064       .  S
C168        H180   1.078       .  S
N183        C187   1.372       .  A
N183        C184   1.380       .  A
N183        C233   1.482       .  S
C184        C409   1.488       .  S
C184        C185   1.374       .  A
C185        C186   1.347       .  A
C185        H188   1.083       .  S
C186        C187   1.385       .  A
C186        H189   1.083       .  S
C187        C310   1.485       .  S
N190        C194   1.378       .  A
N190        C191   1.365       .  A
N190        C231   1.494       .  S
C191        C298   1.519       .  S
C191        C192   1.384       .  A
C192        C193   1.355       .  A
C192        H195   1.079       .  S
C193        C194   1.389       .  A
C193        H196   1.079       .  S
C194        C373   1.524       .  S
N197        C201   1.379       .  A
N197        C198   1.388       .  A
N197        C234   1.490       .  S
C198        C394   1.487       .  S
C198        C199   1.378       .  A
C199        C200   1.344       .  A
C199        H202   1.083       .  S
C200        C201   1.377       .  A
C200        H203   1.083       .  S
C201        C289   1.475       .  S
N204        C208   1.370       .  A
N204        C205   1.365       .  A
N204        C232   1.467       .  S
C205        C274   1.470       .  S
C205        C206   1.379       .  A
C206        C207   1.358       .  A
C206        H209   1.083       .  S
C207        C208   1.383       .  A
C207        H210   1.083       .  S
C208        C385   1.496       .  S
N211        C216   1.360       .  A
N211        C215   1.368   1_565  A
N211        H243   1.042       .  S
N212        C219   1.365       .  A
N212        C220   1.358   1_655  A
N213        C218   1.368       .  A
N213        C217   1.359   1_565  A
N213        H244   1.045       .  S
N214        C221   1.351       .  A
N214        C222   1.355   1_655  A
C215        C223   1.399       .  A
C215        C231   1.457       .  A
C216        C232   1.423       .  A
C216        C224   1.374       .  A
C217        C225   1.386       .  A
C217        C234   1.437       .  A
C218        C233   1.426       .  A
C218        C226   1.378       .  A
C219        C231   1.417       .  A
C219        C227   1.378       .  A
C220        C234   1.419       .  A
C220        C228   1.378       .  A
C221        C229   1.379       .  A
C221        C232   1.400       .  A
C222        C230   1.380       .  A
C222        C233   1.410       .  A
C223        C224   1.381   1_545  A
C223        H235   1.071       .  S
C224        H236   1.081       .  S
C225        C226   1.384   1_545  A
C225        H237   1.078       .  S
C226        H238   1.079       .  S
C227        C228   1.373   1_655  A
C227        H239   1.082       .  S
C228        H240   1.079       .  S
C229        C230   1.376   1_655  A
C229        H241   1.082       .  S
C230        H242   1.080       .  S
O245        C253   1.284       .  A
O245       Co265   2.017       .  S
O246        C254   1.273       .  A
O246       Co266   1.993       .  S
O247        C255   1.271       .  A
O247       Co267   2.013   1_565  S
O248        C256   1.296       .  A
O248       Co268   2.110       .  S
O249        C255   1.261       .  A
O249       Co266   1.961       .  S
O250        C256   1.270       .  A
O250       Co265   1.921       .  S
O251        C254   1.269       .  A
O251       Co268   2.021       .  S
O252        C253   1.267       .  A
O252       Co267   1.972   1_565  S
C253        C358   1.494       .  S
C254        C325   1.503       .  S
C255        C277   1.486       .  S
C256        C313   1.497       .  S
O257        C270   1.302       .  A
O257       Co265   2.129   1_545  S
O258        C271   1.274       .  A
O258       Co266   2.007   1_545  S
O259        C272   1.275       .  A
O259       Co267   2.002       .  S
O260        C273   1.277       .  A
O260       Co268   2.003   1_545  S
O261        C273   1.264       .  A
O261       Co266   1.973   1_545  S
O262        C272   1.265       .  A
O262       Co265   1.984   1_545  S
O263        C270   1.273       .  A
O263       Co268   1.888   1_545  S
O264        C271   1.272       .  A
O264       Co267   1.977       .  S
Co265       O269   2.000       .  S
Co266       O269   2.025       .  S
Co267       O269   2.073   1_545  S
Co268       O269   2.033       .  S
C270        C286   1.495       .  S
C271        C301   1.467       .  S
C272        C349   1.505       .  S
C273        C337   1.502       .  S
C274        C275   1.401       .  A
C274        C279   1.405       .  A
C275        C276   1.399       .  A
C275        H284   1.083       .  S
C276        C277   1.420       .  A
C276        S280   1.810       .  S
C277        C278   1.411       .  A
C278        C279   1.397       .  A
C278        H285   1.084       .  S
C279        S281   1.802       .  S
S280        H283   1.406       .  S
S281        H282   1.407       .  S
C286        C287   1.410       .  A
C286        C291   1.419       .  A
C287        C288   1.410       .  A
C287        H296   1.082       .  S
C288        C289   1.407       .  A
C288        S292   1.802       .  S
C289        C290   1.397       .  A
C290        C291   1.391       .  A
C290        H297   1.084       .  S
C291        S293   1.796       .  S
S292        H295   1.406       .  S
S293        H294   1.408       .  S
C298        C299   1.419       .  A
C298        C303   1.423       .  A
C299        C300   1.396       .  A
C299        H308   1.076       .  S
C300        C301   1.399       .  A
C300        S304   1.802       .  S
C301        C302   1.401       .  A
C302        C303   1.407       .  A
C302        H309   1.083       .  S
C303        S305   1.805       .  S
S304        H307   1.407       .  S
S305        H306   1.406       .  S
C310        C311   1.411       .  A
C310        C315   1.406       .  A
C311        C312   1.412       .  A
C311        H320   1.083       .  S
C312        C313   1.417       .  A
C312        S316   1.801       .  S
C313        C314   1.406       .  A
C314        C315   1.392       .  A
C314        H321   1.077       .  S
C315        S317   1.805       .  S
S316        H319   1.407       .  S
S317        H318   1.408       .  S
C322        C323   1.411       .  A
C322        C327   1.428       .  A
C323        C324   1.403       .  A
C323        H332   1.080       .  S
C324        C325   1.412       .  A
C324        S328   1.809       .  S
C325        C326   1.410       .  A
C326        C327   1.419       .  A
C326        H333   1.083       .  S
C327        S329   1.806       .  S
S328        H331   1.406       .  S
S329        H330   1.399       .  S
C334        C335   1.412       .  A
C334        C339   1.402       .  A
C335        C336   1.410       .  A
C335        H344   1.081       .  S
C336        C337   1.414       .  A
C336        S340   1.797       .  S
C337        C338   1.417       .  A
C338        C339   1.390       .  A
C338        H345   1.081       .  S
C339        S341   1.806       .  S
S340        H343   1.407       .  S
S341        H342   1.407       .  S
C346        C347   1.411       .  A
C346        C351   1.420       .  A
C347        C348   1.419       .  A
C347        H356   1.083       .  S
C348        C349   1.421       .  A
C348        S352   1.798       .  S
C349        C350   1.403       .  A
C350        C351   1.393       .  A
C350        H357   1.075       .  S
C351        S353   1.815       .  S
S352        H355   1.406       .  S
S353        H354   1.402       .  S
C358        C359   1.414       .  A
C358        C363   1.413       .  A
C359        C360   1.395       .  A
C359        H368   1.084       .  S
C360        C361   1.404       .  A
C360        S364   1.804       .  S
C361        C362   1.413       .  A
C362        C363   1.410       .  A
C362        H369   1.084       .  S
C363        S365   1.798       .  S
S364        H367   1.408       .  S
S365        H366   1.407       .  S
C370        C371   1.408       .  A
C370        C375   1.418       .  A
C371        C372   1.403       .  A
C371        H380   1.084       .  S
C372        C373   1.421       .  A
C372        S376   1.807       .  S
C373        C374   1.416       .  A
C374        C375   1.423       .  A
C374        H381   1.081       .  S
C375        S377   1.802       .  S
S376        H379   1.408       .  S
S377        H378   1.404       .  S
C382        C383   1.403       .  A
C382        C387   1.417       .  A
C383        C384   1.397       .  A
C383        H392   1.079       .  S
C384        C385   1.411       .  A
C384        S388   1.805       .  S
C385        C386   1.412       .  A
C386        C387   1.419       .  A
C386        H393   1.083       .  S
C387        S389   1.801       .  S
S388        H391   1.407       .  S
S389        H390   1.404       .  S
C394        C395   1.398       .  A
C394        C399   1.421       .  A
C395        C396   1.392       .  A
C395        H404   1.078       .  S
C396        C397   1.419       .  A
C396        S400   1.804   1_455  S
C397        C398   1.404       .  A
C398        C399   1.413       .  A
C398        H405   1.083       .  S
C399        S401   1.799       .  S
S400        H403   1.408       .  S
S401        H402   1.407       .  S
C406        C407   1.406       .  A
C406        C411   1.423       .  A
C407        C408   1.417       .  A
C407        H416   1.083       .  S
C408        C409   1.420       .  A
C408        S412   1.798       .  S
C409        C410   1.398       .  A
C410        C411   1.391       .  A
C410        H417   1.077       .  S
C411        S413   1.811       .  S
S412        H415   1.406       .  S
S413        H414   1.408   1_455  S
C418        C419   1.412       .  A
C418        C423   1.418       .  A
C419        C420   1.416       .  A
C419        H428   1.084       .  S
C420        C421   1.413       .  A
C420        S424   1.803       .  S
C421        C422   1.401       .  A
C422        C423   1.393       .  A
C422        H429   1.076       .  S
C423        S425   1.815       .  S
S424        H427   1.405       .  S
S425        H426   1.403       .  S
C430        C431   1.412       .  A
C430        C435   1.404       .  A
C431        C432   1.403       .  A
C431        H440   1.075       .  S
C432        C433   1.406       .  A
C432        S436   1.805       .  S
C433        C434   1.407       .  A
C434        C435   1.389       .  A
C434        H441   1.074   1_455  S
C435        S437   1.805   1_455  S
S436        H439   1.404       .  S
S437        H438   1.407       .  S
C442        C443   1.404       .  A
C442        C447   1.424       .  A
C443        C444   1.396       .  A
C443        H452   1.084       .  S
C444        C445   1.410       .  A
C444        S448   1.798       .  S
C445        C446   1.400       .  A
C446        C447   1.405       .  A
C446        H453   1.084       .  S
C447        S449   1.802       .  S
S448        H451   1.405       .  S
S449        H450   1.400       .  S
C454        C455   1.409       .  A
C454        C459   1.411       .  A
C455        C456   1.408       .  A
C455        H464   1.083       .  S
C456        C457   1.413       .  A
C456        S460   1.803       .  S
C457        C458   1.402       .  A
C458        C459   1.395       .  A
C458        H465   1.081       .  S
C459        S461   1.805       .  S
S460        H463   1.406       .  S
S461        H462   1.407       .  S
C466        C467   1.406       .  A
C466        C471   1.412       .  A
C467        C468   1.393       .  A
C467        H476   1.083   1_554  S
C468        C469   1.407       .  A
C468        S472   1.804   1_554  S
C469        C470   1.413       .  A
C470        C471   1.412       .  A
C470        H477   1.084       .  S
C471        S473   1.802       .  S
S472        H475   1.403       .  S
S473        H474   1.402       .  S
C478        C479   1.410       .  A
C478        C483   1.413       .  A
C479        C480   1.407       .  A
C479        H488   1.083       .  S
C480        C481   1.403       .  A
C480        S484   1.802       .  S
C481        C482   1.398       .  A
C482        C483   1.384       .  A
C482        H489   1.078       .  S
C483        S485   1.809       .  S
S484        H487   1.407       .  S
S485        H486   1.396       .  S
C490        C491   1.426       .  A
C490        C495   1.416       .  A
C491        C492   1.404       .  A
C491        H500   1.080       .  S
C492        C493   1.402       .  A
C492        S496   1.804       .  S
C493        C494   1.412       .  A
C494        C495   1.419       .  A
C494        H501   1.081       .  S
C495        S497   1.801       .  S
S496        H499   1.406       .  S
S497        H498   1.407       .  S
C502        C503   1.401       .  A
C502        C507   1.418       .  A
C503        C504   1.396       .  A
C503        H512   1.084       .  S
C504        C505   1.420       .  A
C504        S508   1.810       .  S
C505        C506   1.403       .  A
C506        C507   1.408       .  A
C506        H513   1.083       .  S
C507        S509   1.805       .  S
S508        H511   1.399       .  S
S509        H510   1.407       .  S
C514        C515   1.408       .  A
C514        C519   1.417       .  A
C515        C516   1.416       .  A
C515        H524   1.083       .  S
C516        C517   1.417       .  A
C516        S520   1.797       .  S
C517        C518   1.399       .  A
C518        C519   1.386       .  A
C518        H525   1.080       .  S
C519        S521   1.800   1_556  S
S520        H523   1.405       .  S
S521        H522   1.408       .  S
C526        C527   1.403       .  A
C526        C531   1.409       .  A
C527        C528   1.408       .  A
C527        H536   1.083       .  S
C528        C529   1.420       .  A
C528        S532   1.805       .  S
C529        C530   1.409       .  A
C530        C531   1.390       .  A
C530        H537   1.082       .  S
C531        S533   1.807       .  S
S532        H535   1.407       .  S
S533        H534   1.406       .  S
C538        C539   1.406       .  A
C538        C543   1.431       .  A
C539        C540   1.411       .  A
C539        H548   1.083       .  S
C540        C541   1.421       .  A
C540        S544   1.803       .  S
C541        C542   1.400       .  A
C542        C543   1.409       .  A
C542        H549   1.083       .  S
C543        S545   1.813       .  S
S544        H547   1.403       .  S
S545        H546   1.406       .  S
C550        C551   1.422       .  A
C550        C555   1.414       .  A
C551        C552   1.406       .  A
C551        H560   1.078       .  S
C552        C553   1.410       .  A
C552        S556   1.809       .  S
C553        C554   1.416       .  A
C554        C555   1.413       .  A
C554        H561   1.081       .  S
C555        S557   1.803       .  S
S556        H559   1.407       .  S
S557        H558   1.406       .  S
