geometry optimzed in LAMMPS
_audit_creation_date              2020-11-30 
_audit_creation_method            'lammps2cif' 
_symmetry_space_group_name_H-M    'P1' 
_symmetry_Int_Tables_number       1 
_symmetry_cell_setting            triclinic 
loop_ 
_symmetry_equiv_pos_as_xyz 
  x,y,z 
_cell_length_a                    53.72225316 
_cell_length_b                    34.609039185534044 
_cell_length_c                    45.525441019270275 
_cell_angle_alpha                 89.94862040637442 
_cell_angle_beta                  115.94478118185779 
_cell_angle_gamma                 90.14832903480662 
loop_ 
_atom_site_label 
_atom_site_type_symbol 
_atom_site_fract_x 
_atom_site_fract_y 
_atom_site_fract_z 
_atom_site_charge 
C1          C  0.88440046  0.25518609  0.66233663     0.03800
C2          C  0.85541293  0.25765462  0.64838775    -0.12400
C3          C  0.84036612  0.23946501  0.66317826     0.01300
C4          C  0.85474415  0.21782217  0.69179054    -0.10900
C5          C  0.88365215  0.21472858  0.70566245     0.03700
C6          C  0.89839355  0.23384434  0.69109923    -0.10300
H7          H  0.84460139  0.27324971  0.62567008     0.09300
H8          H  0.84354759  0.20388083  0.70372568     0.06900
H9          H  0.92078955  0.23210362  0.70222678     0.06700
Zr10       Zr  0.49258748  0.17571869  0.49298452     2.17500
O11         O  0.48638384  0.10572305  0.49048138    -0.50700
O12         O  0.44361193  0.19214627  0.46994211    -0.73900
O13         O  0.48061809  0.15233149  0.53539753    -0.80700
O14         O  0.49634916  0.18127537  0.41133778    -0.82400
O15         O  0.50430778  0.18759773  0.58147179    -0.78100
O16         O  0.47747048  0.14693628  0.43919559    -0.89700
O17         O  0.44046047  0.25737028  0.47096922    -0.75700
O18         O  0.49254414  0.22987452  0.52515171    -0.85200
O19         O  0.48643678  0.23096134  0.45943556    -0.84800
O20         O  0.53643285  0.17356670  0.54071151    -0.71600
O21         O  0.53138973  0.17587659  0.48014869    -0.83700
Zr22       Zr  0.56841799  0.28627744  0.52583229     2.26400
Zr23       Zr  0.53657426  0.22934890  0.57206744     2.06300
Zr24       Zr  0.52519128  0.23223074  0.44704401     2.10000
Zr25       Zr  0.48648203  0.28493748  0.49163545     1.78800
O26         O  0.54731934  0.20305708  0.41592630    -0.92500
O27         O  0.46824482  0.31090360  0.52800250    -0.40400
O28         O  0.52486196  0.28774144  0.47812187    -0.77000
O29         O  0.52993455  0.28605299  0.53926443    -0.95700
O30         O  0.57528859  0.23115446  0.55965580    -0.89000
O31         O  0.56891590  0.23198428  0.49408859    -0.91800
C32         C  0.42959219  0.22355671  0.46464414     1.01900
C33         C  0.48117996  0.15370590  0.41362215     1.14900
C34         C  0.48666339  0.16149601  0.56505826     1.05600
O35         O  0.52032204  0.25798337  0.60925893    -0.94000
O36         O  0.56649026  0.27954439  0.60818864    -0.89700
O37         O  0.58615929  0.31259339  0.58050662    -0.82900
C38         C  0.58219672  0.30639561  0.60594027     1.12300
O39         O  0.57602087  0.10651794  0.52827594    -0.95900
Zr40       Zr  0.57516595  0.17701417  0.52769549     1.88900
O41         O  0.61740966  0.27147894  0.54836488    -0.72600
O42         O  0.56850417  0.18800659  0.61542036    -0.51900
O43         O  0.60052953  0.15157393  0.58284462    -0.96500
O44         O  0.59280617  0.14885697  0.49144043    -0.53800
O45         O  0.62092186  0.20614356  0.54721181    -0.73100
C46         C  0.63150479  0.24023342  0.55337177     0.99200
O47         O  0.57018402  0.35674035  0.52648389    -0.61900
O48         O  0.49122475  0.26778810  0.40071619    -0.56700
O49         O  0.57977667  0.31169958  0.48362307    -0.93400
O50         O  0.55326939  0.28054159  0.43616046    -0.91800
O51         O  0.46105504  0.31685117  0.43917343    -0.92200
O52         O  0.48761086  0.35526937  0.49336019    -0.91000
C53         C  0.57162819  0.30577340  0.45297159     1.18100
H54         H  0.46942130  0.22937595  0.43948228     0.34000
H55         H  0.53039452  0.30885239  0.55174834     0.44900
H56         H  0.58381859  0.23384614  0.48768357     0.38400
H57         H  0.53767316  0.15033028  0.55297208     0.34900
H58         H  0.45015446  0.32227868  0.51326772     0.26700
H59         H  0.58547083  0.20381630  0.62650734     0.32600
H60         H  0.61925905  0.14562066  0.58496215     0.38500
H61         H  0.45015401  0.29613715  0.42396521     0.33000
H62         H  0.49762685  0.29497165  0.40451363     0.31800
H63         H  0.53755758  0.21428868  0.39377246     0.33500
H64         H  0.60440196  0.16926955  0.48839201     0.32500
H65         H  0.50740650  0.36193068  0.50603516     0.36500
H66         H  0.55838069  0.36471146  0.50367837     0.29200
H67         H  0.46765119  0.10126921  0.48901199     0.33500
H68         H  0.59579543  0.09928695  0.53686494     0.36300
H69         H  0.49438471  0.25938583  0.38184089     0.28900
H70         H  0.55937013  0.36466922  0.53834482     0.41800
H71         H  0.50225801  0.26959905  0.59479347     0.31800
H72         H  0.46341275  0.28790132  0.53740831     0.39500
H73         H  0.57641770  0.14697886  0.46998354     0.31300
H74         H  0.56061895  0.18639269  0.63139104     0.31400
H75         H  0.49928187  0.09605786  0.51235899     0.31600
C76         C  0.17688251  0.20331769  0.35103396     0.03800
C77         C  0.20583455  0.20091695  0.36542788    -0.12400
C78         C  0.22121627  0.21956951  0.35143070     0.01300
C79         C  0.20737084  0.24086540  0.32257675    -0.10900
C80         C  0.17835539  0.24334524  0.30769372     0.03700
C81         C  0.16319891  0.22454112  0.32204506    -0.10300
H82         H  0.21651138  0.18461127  0.38781566     0.09300
H83         H  0.21914506  0.25579029  0.31183619     0.06900
H84         H  0.14080792  0.22633654  0.31057960     0.06700
C85         C  0.67567336  0.44801456  0.34792440     0.03800
C86         C  0.70476317  0.44721205  0.36387445    -0.12400
C87         C  0.72053817  0.46602282  0.35033278     0.01300
C88         C  0.70687331  0.48544195  0.32042672    -0.10900
C89         C  0.67787001  0.48649966  0.30422114     0.03700
C90         C  0.66234941  0.46780142  0.31810169    -0.10300
H91         H  0.71510374  0.43196258  0.38686216     0.09300
H92         H  0.71828171  0.00191068  0.31008398     0.06900
H93         H  0.63993658  0.46889440  0.30583264     0.06700
Zr94       Zr  0.99370970  0.42675738  0.49116748     2.17500
O95         O  0.98883088  0.35677792  0.48531089    -0.50700
O96         O  0.94433776  0.44114960  0.46665497    -0.73900
O97         O  0.98177310  0.40025353  0.53265231    -0.80700
O98         O  0.00095241  0.43340674  0.41192731    -0.82400
O99         O  0.00530918  0.43245983  0.58036238    -0.78100
O100        O  0.97998293  0.39905308  0.43741919    -0.89700
O101        O  0.93981613  0.00674601  0.46701190    -0.75700
O102        O  0.99067740  0.48036187  0.52208993    -0.85200
O103        O  0.98851654  0.48218765  0.45817936    -0.84800
O104        O  0.03601681  0.42608896  0.54086064    -0.71600
O105        O  0.03431583  0.42781072  0.48178728    -0.83700
Zr106      Zr  0.06756919  0.03961094  0.52762359     2.26400
Zr107      Zr  0.03318541  0.48141846  0.57086363     2.06300
Zr108      Zr  0.02887301  0.48401319  0.44903721     2.10000
Zr109      Zr  0.98536139  0.03582614  0.48868295     1.78800
O110        O  0.05542733  0.45405078  0.42346868    -0.92500
O111        O  0.96390425  0.06068235  0.52218808    -0.40400
O112        O  0.02532336  0.03949026  0.47807250    -0.77000
O113        O  0.02739925  0.03840996  0.53801425    -0.95700
O114        O  0.07346373  0.48476083  0.56156621    -0.89000
O115        O  0.07113720  0.48558174  0.49805391    -0.91800
C116        C  0.92987554  0.47224172  0.46009892     1.01900
C117        C  0.98506905  0.40604603  0.41287609     1.14900
C118        C  0.98822542  0.40637069  0.56293197     1.05600
O119        O  0.00564713  0.01304003  0.59453905    -0.94000
O120        O  0.06231654  0.02950150  0.60810807    -0.89700
O121        O  0.08262596  0.06507562  0.58247546    -0.82900
C122        C  0.07834085  0.05666850  0.60737966     1.12300
O123        O  0.07618882  0.36045921  0.52669149    -0.95900
Zr124      Zr  0.07641755  0.43062621  0.53147561     1.88900
O125        O  0.11656282  0.02505542  0.55403354    -0.72600
O126        O  0.06258926  0.44644150  0.62042665    -0.51900
O127        O  0.09617536  0.39782933  0.58416166    -0.96500
O128        O  0.10211376  0.40839738  0.50185490    -0.53800
O129        O  0.12146541  0.46088963  0.56091661    -0.73100
C130        C  0.13135691  0.49530484  0.56471716     0.99200
O131        O  0.07145777  0.10998193  0.52791518    -0.61900
O132        O  0.99867846  0.01873551  0.39943354    -0.56700
O133        O  0.08136658  0.06461195  0.48692487    -0.93400
O134        O  0.05798355  0.03087341  0.43994809    -0.91800
O135        O  0.95894406  0.06614594  0.43578214    -0.92200
O136        O  0.98779842  0.10609130  0.49102416    -0.91000
C137        C  0.07540249  0.05682848  0.45696272     1.18100
H138        H  0.97209988  0.48043446  0.43754230     0.34000
H139        H  0.02699940  0.06115526  0.55017959     0.44900
H140        H  0.08680396  0.48810920  0.49317746     0.38400
H141        H  0.03716276  0.40276033  0.55297506     0.34900
H142        H  0.94717343  0.07444457  0.50663296     0.26700
H143        H  0.08168747  0.45469605  0.62543411     0.32600
H144        H  0.10843790  0.41715241  0.59988447     0.38500
H145        H  0.94103011  0.07308732  0.43568868     0.33000
H146        H  0.00082881  0.04624118  0.40607679     0.31800
H147        H  0.04515055  0.46043697  0.39998274     0.33500
H148        H  0.11325204  0.43081287  0.50099055     0.32500
H149        H  0.00785087  0.11203655  0.50135419     0.36500
H150        H  0.05795107  0.11820936  0.50582896     0.29200
H151        H  0.96968951  0.35117037  0.48196127     0.33500
H152        H  0.09585800  0.35252880  0.53778344     0.36300
H153        H  0.00796349  0.01657256  0.38490950     0.28900
H154        H  0.06337780  0.11944603  0.54236811     0.41800
H155        H  0.01777221  0.01282658  0.61833611     0.31800
H156        H  0.95659403  0.03756910  0.52867887     0.39500
H157        H  0.08789340  0.40500492  0.47906155     0.31300
H158        H  0.05880696  0.45841322  0.63780640     0.31400
H159        H  0.00086019  0.34618051  0.50716724     0.31600
C160        C  0.38239929  0.01858928  0.66985054     0.03800
C161        C  0.39672599  0.49369975  0.69731081    -0.12400
C162        C  0.38209459  0.47249777  0.71106841     0.01300
C163        C  0.35309886  0.47513016  0.69701439    -0.10900
C164        C  0.33876406  0.49893355  0.66980833    -0.01900
C165        C  0.35347215  0.02143052  0.65688073    -0.10300
H166        H  0.41909032  0.49190012  0.70804637     0.09300
H167        H  0.34163023  0.45824739  0.70706008     0.06900
H168        H  0.34243790  0.04018571  0.63617294     0.06700
C169        C  0.88846345  0.18962861  0.17328712     0.03800
C170        C  0.90338331  0.21129006  0.20184253    -0.12400
C171        C  0.88947042  0.23212738  0.21663625     0.01300
C172        C  0.86045780  0.23044999  0.20312005    -0.10900
C173        C  0.84527062  0.20862362  0.17496263     0.03700
C174        C  0.85940029  0.18843997  0.16013412    -0.10300
H175        H  0.92576418  0.21245683  0.21230220     0.09300
H176        H  0.84963099  0.24690202  0.21418174     0.06900
H177        H  0.84764674  0.17225393  0.13793998     0.06700
Zr178      Zr  0.57394072  0.17875275  0.02571530     2.17500
O179        O  0.57814027  0.10868052  0.02474876    -0.50700
O180        O  0.62277195  0.19496206  0.05418942    -0.73900
O181        O  0.58989096  0.15973254  0.98538637    -0.80700
O182        O  0.56258214  0.17533586  0.10228146    -0.82400
O183        O  0.56852030  0.19781675  0.94059869    -0.78100
O184        O  0.58656113  0.14644573  0.07779052    -0.89700
O185        O  0.62611811  0.26016109  0.06006754    -0.75700
O186        O  0.57758442  0.23701298  0.99998524    -0.85200
O187        O  0.57610693  0.22986797  0.06170827    -0.84800
O188        O  0.53332598  0.18088508  0.97435012    -0.71600
O189        O  0.53184010  0.17433797  0.03166515    -0.83700
Zr190      Zr  0.49737088  0.28869515  0.99157866     2.26400
Zr191      Zr  0.53660368  0.24042378  0.94949649     2.06300
Zr192      Zr  0.53393383  0.22638151  0.06707988     2.10000
Zr193      Zr  0.57989889  0.28782259  0.03606241     1.78800
O194        O  0.50385895  0.18668098  0.08214777    -0.92500
O195        O  0.60461628  0.31993257  0.00894624    -0.40400
O196        O  0.53802730  0.28610596  0.04285754    -0.77000
O197        O  0.53934302  0.29290198  0.98502594    -0.95700
O198        O  0.49467051  0.23774759  0.95527048    -0.89000
O199        O  0.49343531  0.23006894  0.01661934    -0.91800
C200        C  0.63682729  0.22631537  0.06399615     1.01900
C201        C  0.58006081  0.15042571  0.10165609     1.14900
C202        C  0.58534501  0.17068576  0.95649812     1.05600
O203        O  0.56194330  0.27930862  0.92700304    -0.94000
O204        O  0.50564008  0.28893842  0.91296084    -0.89700
O205        O  0.48212454  0.31778792  0.93814702    -0.82900
C206        C  0.48782751  0.31314290  0.91380967     1.12300
O207        O  0.49422724  0.10971895  0.97442469    -0.95900
Zr208      Zr  0.49135940  0.17931952  0.98058529     1.88900
O209        O  0.44840905  0.27229319  0.96522476    -0.72600
O210        O  0.50933223  0.20493616  0.89932399    -0.51900
O211        O  0.46940800  0.16043842  0.92322582    -0.96500
O212        O  0.46931554  0.14135473  0.00782155    -0.53800
O213        O  0.44534915  0.20692347  0.96020177    -0.73100
C214        C  0.43451503  0.24064352  0.95670139     0.99200
O215        O  0.49364388  0.35904519  0.99123403    -0.61900
O216        O  0.55994617  0.25413189  0.12120913    -0.56700
O217        O  0.48238614  0.30983003  0.03216633    -0.93400
O218        O  0.50348046  0.27120542  0.07663781    -0.91800
O219        O  0.60049071  0.31360650  0.09143506    -0.92200
O220        O  0.57746191  0.35796093  0.03820653    -0.91000
C221        C  0.48712245  0.29892605  0.06111309     1.18100
H222        H  0.59178520  0.22695728  0.08286635     0.34000
H223        H  0.53995044  0.31711437  0.97478336     0.44900
H224        H  0.47719841  0.22993935  0.02058649     0.38400
H225        H  0.53331831  0.15937969  0.96086222     0.34900
H226        H  0.61954397  0.33479622  0.02641566     0.26700
H227        H  0.49098306  0.21761626  0.88980132     0.32600
H228        H  0.45722639  0.18233440  0.91165499     0.38500
H229        H  0.61237925  0.29263582  0.10523617     0.33000
H230        H  0.55834984  0.28243926  0.11773332     0.31800
H231        H  0.50652154  0.19671959  0.10367964     0.33500
H232        H  0.45813404  0.16006519  0.01337737     0.32500
H233        H  0.55745877  0.36391327  0.02676216     0.36500
H234        H  0.50232702  0.36694291  0.01446974     0.29200
H235        H  0.59766324  0.10385367  0.02936213     0.33500
H236        H  0.47491843  0.10081554  0.96157630     0.36300
H237        H  0.54870907  0.24835610  0.13307404     0.28900
H238        H  0.50673758  0.36854065  0.98286706     0.41800
H239        H  0.58043192  0.28301504  0.94550157     0.31800
H240        H  0.61445873  0.29894642  0.00361871     0.39500
H241        H  0.48461023  0.13420541  0.02912685     0.31300
H242        H  0.51759976  0.21189816  0.88439933     0.31400
H243        H  0.56723651  0.10109937  0.00161576     0.31600
C244        C  0.18262549  0.26543025  0.84930443     0.03800
C245        C  0.16808630  0.24232950  0.82158186    -0.12400
C246        C  0.18226181  0.22067636  0.80753925     0.01300
C247        C  0.21131383  0.22214384  0.82171844    -0.10900
C248        C  0.22604099  0.24529193  0.84913846     0.03700
C249        C  0.21160984  0.26726365  0.86247580    -0.10300
H250        H  0.14571091  0.24087906  0.81110466     0.09300
H251        H  0.22260753  0.20433985  0.81210821     0.06900
H252        H  0.22308408  0.28584735  0.88319846     0.06700
C253        C  0.68025076  0.03295344  0.83826294     0.03800
C254        C  0.70931619  0.03256791  0.85227849    -0.12400
C255        C  0.72408342  0.50949153  0.83986335     0.01300
C256        C  0.70873364  0.48768821  0.81169375    -0.10900
C257        C  0.67963396  0.48765812  0.79726594     0.03700
C258        C  0.66596560  0.51045720  0.81130161    -0.10300
H259        H  0.72108743  0.04895055  0.87434536     0.09300
H260        H  0.71957856  0.46950776  0.80174203     0.06900
H261        H  0.64356713  0.51156663  0.79995223     0.06700
C262        C  0.38791661  0.43657418  0.17494731     0.03800
C263        C  0.35876816  0.43619829  0.15924731    -0.12400
C264        C  0.34335255  0.45474584  0.17318946     0.01300
C265        C  0.35712558  0.47475000  0.20269757    -0.10900
C266        C  0.38614175  0.47792389  0.21774637     0.03700
C267        C  0.40142775  0.45803962  0.20403338    -0.10300
H268        H  0.34792871  0.42170397  0.13596436     0.09300
H269        H  0.34451247  0.99211964  0.21202058     0.06900
H270        H  0.42381320  0.45973406  0.21574863     0.06700
Zr271      Zr  0.07239231  0.42686604  0.02596471     2.17500
O272        O  0.07975503  0.35725338  0.02979931    -0.50700
O273        O  0.12078005  0.44518739  0.05224646    -0.73900
O274        O  0.08770197  0.40396748  0.98607397    -0.80700
O275        O  0.06074156  0.42622160  0.10235828    -0.82400
O276        O  0.06879632  0.44288283  0.94153271    -0.78100
O277        O  0.08589731  0.39756856  0.07931867    -0.89700
O278        O  0.12302689  0.00960782  0.05842044    -0.75700
O279        O  0.07661597  0.48454902  0.99996491    -0.85200
O280        O  0.07338206  0.47880474  0.06068938    -0.84800
O281        O  0.03249087  0.42718388  0.97389918    -0.71600
O282        O  0.02959668  0.42151087  0.03037317    -0.83700
Zr283      Zr  0.99362635  0.03415393  0.98676866     2.26400
Zr284      Zr  0.03648048  0.48620324  0.94867912     2.06300
Zr285      Zr  0.03060448  0.47442572  0.06457913     2.10000
Zr286      Zr  0.07616577  0.03568490  0.03346373     1.78800
O287        O  0.00171214  0.43539386  0.08205587    -0.92500
O288        O  0.10141107  0.06992663  0.00805756    -0.40400
O289        O  0.03364788  0.03298652  0.03865735    -0.77000
O290        O  0.03618687  0.03912425  0.98168956    -0.95700
O291        O  0.99361204  0.48277702  0.95254260    -0.89000
O292        O  0.99055617  0.47646404  0.01322855    -0.91800
C293        C  0.13470320  0.47668654  0.06143483     1.01900
C294        C  0.07910169  0.40209884  0.10288387     1.14900
C295        C  0.08425305  0.41470861  0.95753739     1.05600
O296        O  0.06343600  0.02781290  0.93145707    -0.94000
O297        O  0.00423229  0.03189699  0.90901390    -0.89700
O298        O  0.97997368  0.06174476  0.93263297    -0.82900
C299        C  0.98617467  0.05632558  0.90865766     1.12300
O300        O  0.99322102  0.35492646  0.97668420    -0.95900
Zr301      Zr  0.98969181  0.42505603  0.97836403     1.88900
O302        O  0.94523216  0.01624889  0.95791353    -0.72600
O303        O  0.01354168  0.45245349  0.89658808    -0.51900
O304        O  0.97124426  0.40305984  0.92186602    -0.96500
O305        O  0.96516709  0.39072289  0.00462829    -0.53800
O306        O  0.94289263  0.45107393  0.95308866    -0.73100
C307        C  0.93210437  0.48495835  0.94829865     0.99200
O308        O  0.98902565  0.10417021  0.98823696    -0.61900
O309        O  0.05314321  0.00384641  0.11776200    -0.56700
O310        O  0.97656849  0.05546461  0.02572033    -0.93400
O311        O  0.99930623  0.02012262  0.07191399    -0.91800
O312        O  0.09312333  0.06203092  0.08839309    -0.92200
O313        O  0.07272293  0.10586434  0.03265691    -0.91000
C314        C  0.98191941  0.04631703  0.05528834     1.18100
H315        H  0.08886379  0.47678989  0.08200860     0.34000
H316        H  0.03667321  0.06319423  0.97111933     0.44900
H317        H  0.97390265  0.47627579  0.01641058     0.38400
H318        H  0.03304088  0.40528945  0.96110027     0.34900
H319        H  0.11813544  0.08028757  0.02652981     0.26700
H320        H  0.02616802  0.45505284  0.88608195     0.32600
H321        H  0.96299597  0.42634348  0.90850409     0.38500
H322        H  0.11221435  0.07073806  0.09385761     0.33000
H323        H  0.04949103  0.98626134  0.13260622     0.31800
H324        H  0.00788661  0.44223262  0.10532187     0.33500
H325        H  0.95240736  0.40991438  0.00671867     0.32500
H326        H  0.05416555  0.11104694  0.03138194     0.36500
H327        H  0.99993768  0.11146579  0.01143858     0.29200
H328        H  0.09894292  0.35357300  0.03259081     0.33500
H329        H  0.97441089  0.34574851  0.96179317     0.36300
H330        H  0.07315790  0.00083303  0.12400752     0.28900
H331        H  0.99996773  0.11468417  0.97730809     0.41800
H332        H  0.05547252  0.02509580  0.90741196     0.31800
H333        H  0.10849392  0.04939151  0.99860223     0.39500
H334        H  0.97932099  0.38642518  0.02731796     0.31300
H335        H  0.01435876  0.42472562  0.90233399     0.31400
H336        H  0.06781037  0.34713626  0.00771066     0.31600
C337        C  0.26772618  0.44289811  0.15461995    -0.27600
C338        C  0.25447747  0.46204551  0.12443453     0.06000
C339        C  0.26991947  0.97700532  0.10942229     0.25600
C340        C  0.29960139  0.47416772  0.12562902    -0.12100
C341        C  0.31275878  0.45556609  0.15596163    -0.26000
C342        C  0.29660574  0.43971430  0.17030522     0.36500
C343        C  0.22381035  0.46582580  0.10823611     0.06000
F344        F  0.25769479  0.99445666  0.07978202    -0.19800
H345        H  0.31088702  0.98630676  0.11356599     0.15900
F346        F  0.30878295  0.42097875  0.19937014    -0.23500
H347        H  0.25570101  0.43090959  0.16632702     0.17700
C348        C  0.20667507  0.43349896  0.10405403     0.25700
C349        C  0.17788391  0.43737946  0.08886766    -0.12000
C350        C  0.16541004  0.47352575  0.07747000    -0.26100
C351        C  0.18261574  0.50588798  0.08150955     0.36600
C352        C  0.21145719  0.50195901  0.09682148    -0.27700
F353        F  0.21772833  0.39789942  0.11396061    -0.19800
H354        H  0.16533563  0.41186540  0.08612006     0.15900
F355        F  0.17172131  0.54125380  0.07029050    -0.23500
H356        H  0.22420890  0.52734637  0.09997213     0.17700
C357        C  0.85534460  0.46354516  0.91707956    -0.27600
C358        C  0.84347734  0.49743100  0.89963873     0.06000
C359        C  0.86000191  0.02661836  0.89883329     0.25600
C360        C  0.88960555  0.52216520  0.91324307    -0.12100
C361        C  0.90156941  0.48831676  0.93085275    -0.26000
C362        C  0.88408327  0.45881147  0.93241533     0.36500
C363        C  0.81301258  0.50214051  0.88431180     0.06000
F364        F  0.84923244  0.06034986  0.88328207    -0.19800
H365        H  0.90165373  0.04611332  0.91418869     0.15900
F366        F  0.89468375  0.42598633  0.94967448    -0.23500
H367        H  0.84225630  0.44068874  0.91886598     0.17700
C368        C  0.79772163  0.00989599  0.85036055     0.25700
C369        C  0.76886522  0.01321773  0.83583628    -0.12000
C370        C  0.75474979  0.50782272  0.85545607    -0.26100
C371        C  0.76962598  0.50006918  0.88904830     0.36600
C372        C  0.79846127  0.49717064  0.90322725    -0.27700
F373        F  0.81141909  0.01398908  0.83157505    -0.19800
H374        H  0.75805513  0.01955819  0.80997340     0.15900
F375        F  0.75624637  0.49386538  0.90794547    -0.23500
H376        H  0.80950401  0.49081714  0.92906688     0.17700
C377        C  0.11814850  0.38844001  0.90264070    -0.27600
C378        C  0.12414415  0.34918788  0.91002843     0.06000
C379        C  0.11730295  0.33175825  0.93346942     0.25600
C380        C  0.10457188  0.35331156  0.94904454    -0.12100
C381        C  0.09852745  0.39261240  0.94163486    -0.26000
C382        C  0.10561802  0.41008989  0.91837323     0.36500
C383        C  0.13860972  0.32717602  0.89422988     0.06000
F384        F  0.12252195  0.29374104  0.94091665    -0.19800
H385        H  0.09910112  0.33909197  0.96662804     0.15900
F386        F  0.10131086  0.44838165  0.91161216    -0.23500
H387        H  0.12379272  0.40258166  0.88517244     0.17700
C388        C  0.12841457  0.32625433  0.86004249     0.25700
C389        C  0.14291766  0.30653583  0.84559366    -0.12000
C390        C  0.16763171  0.28693921  0.86490827    -0.26100
C391        C  0.17751124  0.28740349  0.89914921     0.36600
C392        C  0.16321412  0.30758057  0.91354334    -0.27700
F393        F  0.10411598  0.34367284  0.84061077    -0.19800
H394        H  0.13482678  0.30667762  0.81923234     0.15900
F395        F  0.20052465  0.26739752  0.91876145    -0.23500
H396        H  0.17143941  0.30800388  0.93992434     0.17700
C397        C  0.35925783  0.21273273  0.92840285    -0.27600
C398        C  0.34552433  0.24556260  0.91073817     0.06000
C399        C  0.36115837  0.27746780  0.90920093     0.25600
C400        C  0.39011890  0.27616797  0.92481665    -0.12100
C401        C  0.40391140  0.24282059  0.94175964    -0.26000
C402        C  0.38810925  0.21116477  0.94361905     0.36500
C403        C  0.31491168  0.24627049  0.89464313     0.06000
F404        F  0.34842080  0.31003174  0.89301745    -0.19800
H405        H  0.40174953  0.30098392  0.92312220     0.15900
F406        F  0.40048109  0.17875356  0.96043864    -0.23500
H407        H  0.34754967  0.18798079  0.93006565     0.17700
C408        C  0.30012548  0.25406322  0.86104656     0.25700
C409        C  0.27116408  0.25350608  0.84621818    -0.12000
C410        C  0.25661555  0.24545700  0.86471068    -0.26100
C411        C  0.27141963  0.23723460  0.89816780     0.36600
C412        C  0.30029597  0.23766555  0.91293352    -0.27700
F413        F  0.31365682  0.26125918  0.84246550    -0.19800
H414        H  0.26005404  0.25958761  0.82033609     0.15900
F415        F  0.25792746  0.22770719  0.91635439    -0.23500
H416        H  0.31132639  0.23125215  0.93876246     0.17700
C417        C  0.62709576  0.09648989  0.93517937    -0.27600
C418        C  0.62808075  0.11361855  0.90776360     0.06000
C419        C  0.61510688  0.14935908  0.89656943     0.25600
C420        C  0.60140784  0.16767316  0.91260369    -0.12100
C421        C  0.60040925  0.15080704  0.94021306    -0.26000
C422        C  0.61349742  0.11484228  0.95140019     0.36500
C423        C  0.64151509  0.09332289  0.88997453     0.06000
F424        F  0.61491268  0.16596126  0.86944629    -0.19800
H425        H  0.59148352  0.19514409  0.90324625     0.15900
F426        F  0.61263116  0.09682209  0.97743159    -0.23500
H427        H  0.63683173  0.06875144  0.94396157     0.17700
C428        C  0.66280822  0.11099069  0.88473232     0.25700
C429        C  0.67484762  0.09164466  0.86722881    -0.12000
C430        C  0.66586886  0.05439221  0.85463033    -0.26100
C431        C  0.64431480  0.03698711  0.85969471     0.36600
C432        C  0.63247875  0.05623792  0.87742736    -0.27700
F433        F  0.67236840  0.14655781  0.89718176    -0.19800
H434        H  0.69131156  0.10575318  0.86360741     0.15900
F435        F  0.63717339  0.49920608  0.85182410    -0.23500
H436        H  0.61602854  0.04227842  0.88118851     0.17700
C437        C  0.44980332  0.37622169  0.08603966    -0.27600
C438        C  0.44664081  0.35772485  0.11167297     0.06000
C439        C  0.45667645  0.31994402  0.12035488     0.25600
C440        C  0.46962885  0.30109164  0.10368822    -0.12100
C441        C  0.47280667  0.31941520  0.07794263    -0.26000
C442        C  0.46266898  0.35731572  0.06919565     0.36500
C443        C  0.43241667  0.37758322  0.12888706     0.06000
F444        F  0.45453246  0.30157727  0.14550679    -0.19800
H445        H  0.47716107  0.27197317  0.11097324     0.15900
F446        F  0.46570586  0.37650309  0.04493834    -0.23500
H447        H  0.44209290  0.40529731  0.07890849     0.17700
C448        C  0.44143597  0.41389630  0.14355324     0.25700
C449        C  0.42732511  0.43265177  0.15905696    -0.12000
C450        C  0.40395152  0.41553873  0.16021421    -0.26100
C451        C  0.39561360  0.37851568  0.14638266     0.36600
C452        C  0.40959073  0.36001753  0.13072206    -0.27700
F453        F  0.46407096  0.43098191  0.14317287    -0.19800
H454        H  0.43437107  0.46095619  0.16955998     0.15900
F455        F  0.37423117  0.35975811  0.14847626    -0.23500
H456        H  0.40243302  0.33191912  0.11975366     0.17700
C457        C  0.77066592  0.20361116  0.16307617    -0.27600
C458        C  0.75621367  0.21319303  0.12986198     0.06000
C459        C  0.77114838  0.22057428  0.11167275     0.25600
C460        C  0.79998120  0.21806775  0.12638140    -0.12100
C461        C  0.81456946  0.20914243  0.15969027    -0.26000
C462        C  0.79965672  0.20211067  0.17806749     0.36500
C463        C  0.72566753  0.21666467  0.11427303     0.06000
F464        F  0.75780422  0.23022484  0.07959603    -0.19800
H465        H  0.81102167  0.22410547  0.11187636     0.15900
F466        F  0.81306729  0.19366480  0.21039634    -0.23500
H467        H  0.75949759  0.19817292  0.17753633     0.17700
C468        C  0.70871595  0.18531167  0.11348487     0.25700
C469        C  0.67986990  0.18860717  0.09708562    -0.12000
C470        C  0.66742489  0.22322912  0.08129577    -0.26100
C471        C  0.68454395  0.25463745  0.08232770     0.36600
C472        C  0.71331686  0.25130222  0.09878609    -0.27700
F473        F  0.72004211  0.15114250  0.12761808    -0.19800
H474        H  0.66725035  0.16399471  0.09674876     0.15900
F475        F  0.67360856  0.28817697  0.06651243    -0.23500
H476        H  0.72607602  0.27576306  0.09915234     0.17700
C477        C  0.95319860  0.07214593  0.11566600    -0.27600
C478        C  0.94125396  0.10836915  0.10432203     0.06000
C479        C  0.94226898  0.12403753  0.07633105     0.25600
C480        C  0.95500176  0.10352644  0.06004303    -0.12100
C481        C  0.96732221  0.06732966  0.07167378    -0.26000
C482        C  0.96611894  0.05182642  0.09970790     0.36500
C483        C  0.92780153  0.12928945  0.12195273     0.06000
F484        F  0.93061016  0.15886884  0.06449541    -0.19800
H485        H  0.95557356  0.11626585  0.03860549     0.15900
F486        F  0.97718954  0.01677277  0.11171163    -0.23500
H487        H  0.95276553  0.05966728  0.13726988     0.17700
C488        C  0.90703823  0.11131291  0.12807410     0.25700
C489        C  0.89460039  0.13097066  0.14496555    -0.12000
C490        C  0.90285784  0.16872139  0.15659228    -0.26100
C491        C  0.92411441  0.18639931  0.15107244     0.36600
C492        C  0.93626870  0.16688139  0.13370361    -0.27700
F493        F  0.89848271  0.07487980  0.11728902    -0.19800
H494        H  0.87853237  0.11651108  0.14914667     0.15900
F495        F  0.93265900  0.22289422  0.16162419    -0.23500
H496        H  0.95252830  0.18099964  0.12967119     0.17700
C497        C  0.44994168  0.39662391  0.85844397    -0.27600
C498        C  0.44139512  0.37999345  0.82733382     0.06000
C499        C  0.44833047  0.34119350  0.82516811     0.25600
C500        C  0.46397807  0.32007524  0.85341549    -0.12100
C501        C  0.47228548  0.33664720  0.88438487    -0.26000
C502        C  0.46477063  0.37502830  0.88672766     0.36500
C503        C  0.42577615  0.40332449  0.79738197     0.06000
F504        F  0.43938252  0.32323489  0.79580688    -0.19800
H505        H  0.46897326  0.29026541  0.85109580     0.15900
F506        F  0.47222703  0.39196419  0.91628519    -0.23500
H507        H  0.44540974  0.42657342  0.86093447     0.17700
C508        C  0.40401280  0.42783596  0.79481273     0.25700
C509        C  0.38988895  0.44996768  0.76667102    -0.12000
C510        C  0.39704014  0.44817537  0.74047950    -0.26100
C511        C  0.41856092  0.42337715  0.74286484     0.36600
C512        C  0.43285735  0.40151983  0.77111106    -0.27700
F513        F  0.39605911  0.43009074  0.81924921    -0.19800
H514        H  0.37347275  0.46893595  0.76549836     0.15900
F515        F  0.42546554  0.41962141  0.71767463    -0.23500
H516        H  0.44975182  0.38340986  0.77253239     0.17700
C517        C  0.20619777  0.47826302  0.62441210    -0.27600
C518        C  0.21959884  0.50748305  0.61533044     0.06000
C519        C  0.20371797  0.03261644  0.59219542     0.25600
C520        C  0.17489554  0.02944697  0.57639950    -0.12100
C521        C  0.16159651  0.50007662  0.58312090    -0.26000
C522        C  0.17742737  0.47440110  0.60840590     0.36500
C523        C  0.25010214  0.50802130  0.62942075     0.06000
F524        F  0.21635640  0.06168573  0.58378698    -0.19800
H525        H  0.16326650  0.04998628  0.55737436     0.15900
F526        F  0.16514799  0.44568177  0.61772355    -0.23500
H527        H  0.21813574  0.45763130  0.64319723     0.17700
C528        C  0.26635464  0.50977673  0.66334170     0.25700
C529        C  0.29514449  0.50680577  0.67628222    -0.12000
C530        C  0.30818401  0.50224821  0.65562266    -0.26100
C531        C  0.29177038  0.00040322  0.62277856     0.36600
C532        C  0.26295178  0.00205356  0.60985747    -0.27700
F533        F  0.25439830  0.51487335  0.68386332    -0.19800
H534        H  0.30731446  0.50842951  0.70250883     0.15900
F535        F  0.30351575  0.99427413  0.60216666    -0.23500
H536        H  0.25070008  0.99904452  0.58372585     0.17700
C537        C  0.11428890  0.08687448  0.69635307    -0.27600
C538        C  0.12087189  0.12562564  0.69367206     0.06000
C539        C  0.11280696  0.14159029  0.66237468     0.25600
C540        C  0.09925500  0.11887296  0.63452429    -0.12100
C541        C  0.09272774  0.08014366  0.63719085    -0.26000
C542        C  0.10007002  0.06439408  0.66841937     0.36500
C543        C  0.13679383  0.14903319  0.72337451     0.06000
F544        F  0.11751303  0.17942582  0.65864189    -0.19800
H545        H  0.09341209  0.13183518  0.61075135     0.15900
F546        F  0.09429913  0.02697244  0.67204916    -0.23500
H547        H  0.12060487  0.07373135  0.72013401     0.17700
C548        C  0.12968164  0.14969818  0.74968520     0.25700
C549        C  0.14456777  0.17290780  0.77696755    -0.12000
C550        C  0.16680651  0.19580611  0.77860339    -0.26100
C551        C  0.17410184  0.19463982  0.75244497     0.36600
C552        C  0.15935751  0.17129906  0.72534387    -0.27700
F553        F  0.10798310  0.12867894  0.74876761    -0.19800
H554        H  0.13876079  0.17282587  0.79694704     0.15900
F555        F  0.19498770  0.21686496  0.75253364    -0.23500
H556        H  0.16560319  0.17070157  0.70572500     0.17700
C557        C  0.95410216  0.36876231  0.32551602    -0.27600
C558        C  0.94605895  0.33109549  0.32922322     0.06000
C559        C  0.95115986  0.31821837  0.36068391     0.25600
C560        C  0.96377388  0.34275664  0.38764063    -0.12100
C561        C  0.97178456  0.38050064  0.38392779    -0.26000
C562        C  0.96677243  0.39327902  0.35246067     0.36500
C563        C  0.93201566  0.30580552  0.30014904     0.06000
F564        F  0.94335151  0.28226492  0.36532519    -0.19800
H565        H  0.96739737  0.33207552  0.41154891     0.15900
F566        F  0.97345554  0.42976130  0.34750275    -0.23500
H567        H  0.95064179  0.37925259  0.30161700     0.17700
C568        C  0.90967467  0.31976253  0.27186122     0.25700
C569        C  0.89633644  0.29574965  0.24478759    -0.12000
C570        C  0.90485483  0.25734585  0.24525224    -0.26100
C571        C  0.92738166  0.24339955  0.27330034     0.36600
C572        C  0.94080800  0.26748340  0.30046263    -0.27700
F573        F  0.90015772  0.35630371  0.27066104    -0.19800
H574        H  0.87915028  0.30716335  0.22334898     0.15900
F575        F  0.93583254  0.20621074  0.27484849    -0.23500
H576        H  0.95814501  0.25618078  0.32178277     0.17700
C577        C  0.79396008  0.97753114  0.41556592    -0.27600
C578        C  0.80983062  0.46548775  0.39821023     0.06000
C579        C  0.79535564  0.45650929  0.36482581     0.25600
C580        C  0.76640787  0.45660373  0.34954667    -0.12100
C581        C  0.75127382  0.46553527  0.36719074    -0.26000
C582        C  0.76573349  0.47476733  0.40056983     0.36500
C583        C  0.84059243  0.46650218  0.41445702     0.06000
F584        F  0.80919983  0.44880774  0.34671736    -0.19800
H585        H  0.75574841  0.44959004  0.32380040     0.15900
F586        F  0.75095135  0.98729550  0.41755548    -0.23500
H587        H  0.80449550  0.98510405  0.44120243     0.17700
C588        C  0.85466421  0.49916931  0.43236840     0.25700
C589        C  0.88354586  0.50032538  0.44739732    -0.12000
C590        C  0.89919465  0.46919905  0.44466747    -0.26100
C591        C  0.88512241  0.43655993  0.42637396     0.36600
C592        C  0.85609611  0.43525669  0.41159646    -0.27700
F593        F  0.84047600  0.53067882  0.43432868    -0.19800
H594        H  0.89369366  0.52596691  0.46105567     0.15900
F595        F  0.89926404  0.40652835  0.42180400    -0.23500
H596        H  0.84568286  0.40984496  0.39776170     0.17700
C597        C  0.60828730  0.11175444  0.18841225    -0.27600
C598        C  0.62179814  0.07796395  0.18640466     0.06000
C599        C  0.62145552  0.06782536  0.15633810     0.25600
C600        C  0.60760128  0.09114581  0.12875570    -0.12100
C601        C  0.59399661  0.12510876  0.13071574    -0.26000
C602        C  0.59469148  0.13523985  0.16107242     0.36500
C603        C  0.63671429  0.05426189  0.21611625     0.06000
F604        F  0.63537179  0.03621396  0.15395769    -0.19800
H605        H  0.60772898  0.08275023  0.10590859     0.15900
F606        F  0.58306926  0.16852510  0.16480131    -0.23500
H607        H  0.60845317  0.12016422  0.21141422     0.17700
C608        C  0.65684487  0.07127204  0.24471269     0.25700
C609        C  0.67009396  0.04939933  0.27315297    -0.12000
C610        C  0.66335658  0.01029928  0.27372724    -0.26100
C611        C  0.64460957  0.49197427  0.24465909     0.36600
C612        C  0.63033016  0.01490978  0.21645035    -0.27700
F613        F  0.66387431  0.10902229  0.24501984    -0.19800
H614        H  0.68543272  0.06313993  0.29495847     0.15900
F615        F  0.63851023  0.45377219  0.24373367    -0.23500
H616        H  0.61486080  0.00129936  0.19467303     0.17700
C617        C  0.13061762  0.27067892  0.22027826    -0.27600
C618        C  0.13720231  0.30989675  0.21969190     0.06000
C619        C  0.15744644  0.32697107  0.24820689     0.25600
C620        C  0.17085357  0.30508855  0.27666785    -0.12100
C621        C  0.16400067  0.26605223  0.27736217    -0.26000
C622        C  0.14373614  0.24894350  0.24893083     0.36500
C623        C  0.12235601  0.33314660  0.18965289     0.06000
F624        F  0.16450962  0.36468577  0.24839747    -0.19800
H625        H  0.18643259  0.31872108  0.29835865     0.15900
F626        F  0.13704288  0.21106411  0.24874057    -0.23500
H627        H  0.11499669  0.25705656  0.19862453     0.17700
C628        C  0.12207520  0.32215387  0.15979152     0.25700
C629        C  0.10795600  0.34455996  0.13171130    -0.12000
C630        C  0.09364715  0.37818993  0.13277114    -0.26100
C631        C  0.09394974  0.38895718  0.16281198     0.36600
C632        C  0.10820968  0.36666648  0.19083602    -0.27700
F633        F  0.13602335  0.29029392  0.15796749    -0.19800
H634        H  0.10820194  0.33548743  0.10907604     0.15900
F635        F  0.08098423  0.42146035  0.16544015    -0.23500
H636        H  0.10809736  0.37551326  0.21359776     0.17700
C637        C  0.10453145  0.08611801  0.39778218    -0.27600
C638        C  0.11754655  0.12123904  0.41126736     0.06000
C639        C  0.11654819  0.13525222  0.43966316     0.25600
C640        C  0.10294413  0.11411547  0.45448689    -0.12100
C641        C  0.08974551  0.07893946  0.44098161    -0.26000
C642        C  0.09067846  0.06512958  0.41231644     0.36500
C643        C  0.13267574  0.14251371  0.39596165     0.06000
F644        F  0.12930636  0.16890134  0.45349620    -0.19800
H645        H  0.10264316  0.12543787  0.47649913     0.15900
F646        F  0.07872922  0.03101791  0.39855967    -0.23500
H647        H  0.10507845  0.07494867  0.37584508     0.17700
C648        C  0.15362468  0.12411129  0.39067645     0.25700
C649        C  0.16774341  0.14408080  0.37595122    -0.12000
C650        C  0.16124477  0.18272008  0.36618604    -0.26100
C651        C  0.14043207  0.20130338  0.37177345     0.36600
C652        C  0.12625434  0.18123381  0.38652125    -0.27700
F653        F  0.16080312  0.08702619  0.40036566    -0.19800
H654        H  0.18375232  0.12923190  0.37201133     0.15900
F655        F  0.13437358  0.23906947  0.36388296    -0.23500
H656        H  0.11017734  0.19584860  0.39049327     0.17700
C657        C  0.29631855  0.20574045  0.36795513    -0.27600
C658        C  0.30994908  0.21469682  0.40137174     0.06000
C659        C  0.29433777  0.22490245  0.41809924     0.25600
C660        C  0.26554835  0.22638163  0.40159477    -0.12100
C661        C  0.25179767  0.21795593  0.36809353    -0.26000
C662        C  0.26740336  0.20752689  0.35129230     0.36500
C663        C  0.34046332  0.21608078  0.41828055     0.06000
F664        F  0.30698769  0.23336847  0.45046275    -0.19800
H665        H  0.25392779  0.23461292  0.41494664     0.15900
F666        F  0.25471763  0.19851423  0.31902634    -0.23500
H667        H  0.30813552  0.19810970  0.35469586     0.17700
C668        C  0.35652028  0.18294631  0.42175006     0.25700
C669        C  0.38545942  0.18536659  0.43727977    -0.12000
C670        C  0.39885163  0.22087235  0.44962085    -0.26100
C671        C  0.38243897  0.25383810  0.44660213     0.36600
C672        C  0.35362377  0.25127467  0.43106575    -0.27700
F673        F  0.34421526  0.14821587  0.41061448    -0.19800
H674        H  0.39735937  0.15944122  0.43935505     0.15900
F675        F  0.39402931  0.28871220  0.45860674    -0.23500
H676        H  0.34145891  0.27703295  0.42868211     0.17700
C677        C  0.61528694  0.39633097  0.65535630    -0.27600
C678        C  0.62252124  0.38404634  0.68745286     0.06000
C679        C  0.61609802  0.34585812  0.69260212     0.25600
C680        C  0.60293463  0.32065876  0.66611527    -0.12100
C681        C  0.59614900  0.33289727  0.63406906    -0.26000
C682        C  0.60236091  0.37119241  0.62899598     0.36500
C683        C  0.63670812  0.41128594  0.71518726     0.06000
F684        F  0.62316582  0.33254923  0.72327335    -0.19800
H685        H  0.59840893  0.29137248  0.67072321     0.15900
F686        F  0.59513345  0.38492729  0.59842090    -0.23500
H687        H  0.61930664  0.42578415  0.65056650     0.17700
C688        C  0.65933947  0.43375141  0.71732732     0.25700
C689        C  0.67257150  0.45921443  0.74345925    -0.12000
C690        C  0.66390478  0.46256169  0.76836737    -0.26100
C691        C  0.64125028  0.44008173  0.76621411     0.36600
C692        C  0.62769064  0.41510256  0.73973392    -0.27700
F693        F  0.66931191  0.43020506  0.69473032    -0.19800
H694        H  0.68989740  0.47610530  0.74437792     0.15900
F695        F  0.63293285  0.44083255  0.79038625    -0.23500
H696        H  0.61016420  0.39848975  0.73854073     0.17700
C697        C  0.44458764  0.06689442  0.36085629    -0.27600
C698        C  0.44054892  0.07915970  0.32969655     0.06000
C699        C  0.44958372  0.11638933  0.32621733     0.25600
C700        C  0.46284476  0.14032591  0.35352646    -0.12100
C701        C  0.46702154  0.12798619  0.38481273    -0.26000
C702        C  0.45754559  0.09092171  0.38809699     0.36500
C703        C  0.42661081  0.05319498  0.30100333     0.06000
F704        F  0.44605876  0.12941547  0.29651175    -0.19800
H705        H  0.46968180  0.16872695  0.35009714     0.15900
F706        F  0.46116494  0.07743044  0.41769360    -0.23500
H707        H  0.43741890  0.03864947  0.36408955     0.17700
C708        C  0.43523058  0.01463874  0.30162876     0.25700
C709        C  0.42473547  0.49134674  0.27343176    -0.12000
C710        C  0.39966055  0.00447274  0.24600148    -0.26100
C711        C  0.39076601  0.04282327  0.24566829     0.36600
C712        C  0.40421338  0.06684279  0.27279544    -0.27700
F713        F  0.45666340  0.00022932  0.32853486    -0.19800
H714        H  0.43319989  0.46299130  0.27339953     0.15900
F715        F  0.36934975  0.05742156  0.21884878    -0.23500
H716        H  0.39688595  0.09615002  0.27188601     0.17700
C717        C  0.45092468  0.13798936  0.61859394    -0.27600
C718        C  0.44354313  0.09909330  0.61052287     0.06000
C719        C  0.45066909  0.08091208  0.58765845     0.25600
C720        C  0.46479305  0.10140504  0.57313398    -0.12100
C721        C  0.47222012  0.14026671  0.58123396    -0.26000
C722        C  0.46517042  0.15846516  0.60416801     0.36500
C723        C  0.42812628  0.07796555  0.62573164     0.06000
F724        F  0.44445309  0.04313892  0.57981150    -0.19800
H725        H  0.47018477  0.08672760  0.55570768     0.15900
F726        F  0.47108283  0.19637410  0.61170965    -0.23500
H727        H  0.44519415  0.15273917  0.63570324     0.17700
C728        C  0.43754548  0.07805468  0.65980572     0.25700
C729        C  0.42238930  0.05924152  0.67389020    -0.12000
C730        C  0.39783334  0.03933025  0.65438165    -0.26100
C731        C  0.38873500  0.03850955  0.62029316     0.36600
C732        C  0.40367099  0.05791740  0.60617230    -0.27700
F733        F  0.46181102  0.09547364  0.67955194    -0.19800
H734        H  0.42990658  0.06022320  0.70017001     0.15900
F735        F  0.36589588  0.01801375  0.60069981    -0.23500
H736        H  0.39607045  0.05738543  0.57986743     0.17700
C737        C  0.64794612  0.37070523  0.38485696    -0.27600
C738        C  0.62772818  0.39106374  0.39014144     0.06000
C739        C  0.62342019  0.43039825  0.38173180     0.25600
C740        C  0.63888875  0.44874511  0.36771023    -0.12100
C741        C  0.65922066  0.42835096  0.36252756    -0.26000
C742        C  0.66369547  0.38914215  0.37137049     0.36500
C743        C  0.61170548  0.37094648  0.40497287     0.06000
F744        F  0.60401588  0.45082365  0.38662493    -0.19800
H745        H  0.63524116  0.47902207  0.36122211     0.15900
F746        F  0.68288606  0.36842950  0.36631206    -0.23500
H747        H  0.65168092  0.34046946  0.39147865     0.17700
C748        C  0.59603501  0.33786897  0.39018142     0.25700
C749        C  0.58246746  0.31745131  0.40546342    -0.12000
C750        C  0.58469875  0.32918915  0.43610025    -0.26100
C751        C  0.60026453  0.36271107  0.45069146     0.36600
C752        C  0.61339218  0.38343584  0.43505190    -0.27700
F753        F  0.59401035  0.32519597  0.36100876    -0.19800
H754        H  0.57077234  0.29183404  0.39362014     0.15900
F755        F  0.60310627  0.37544081  0.48019738    -0.23500
H756        H  0.62560855  0.40868700  0.44691266     0.17700
C757        C  0.76696322  0.27858448  0.61986038    -0.27600
C758        C  0.75119349  0.24546477  0.61804210     0.06000
C759        C  0.76496587  0.21106586  0.63270227     0.25600
C760        C  0.79382188  0.20940941  0.64729578    -0.12100
C761        C  0.80967268  0.24221351  0.64840959    -0.26000
C762        C  0.79590785  0.27718850  0.63519823     0.36500
C763        C  0.72052694  0.24620957  0.59997923     0.06000
F764        F  0.75050388  0.17901979  0.63314828    -0.19800
H765        H  0.80375573  0.18214255  0.65733991     0.15900
F766        F  0.81035862  0.31018874  0.63749591    -0.23500
H767        H  0.75688268  0.30546309  0.60891918     0.17700
C768        C  0.70474744  0.27567144  0.60495155     0.25700
C769        C  0.67577567  0.27432025  0.58886725    -0.12000
C770        C  0.66206762  0.24346767  0.56783361    -0.26100
C771        C  0.67793826  0.21489595  0.56198295     0.36600
C772        C  0.70678454  0.21651219  0.57771668    -0.27700
F773        F  0.71722302  0.30480226  0.62637220    -0.19800
H774        H  0.66405162  0.29669306  0.59380550     0.15900
F775        F  0.66562023  0.18538537  0.54093678    -0.23500
H776        H  0.71847605  0.19420550  0.57264974     0.17700
C777        C  0.90632702  0.13045773  0.76445959    -0.27600
C778        C  0.92739016  0.14743880  0.79214396     0.06000
C779        C  0.93393671  0.18661868  0.79146335     0.25600
C780        C  0.91981532  0.20836303  0.76311746    -0.12100
C781        C  0.89851837  0.19152763  0.73546771    -0.26000
C782        C  0.89169383  0.15244156  0.73639540     0.36500
C783        C  0.94238614  0.12420160  0.82177345     0.06000
F784        F  0.95412620  0.20363289  0.81812881    -0.19800
H785        H  0.92521810  0.23849719  0.76284149     0.15900
F786        F  0.87123015  0.13542617  0.70997571    -0.23500
H787        H  0.90105343  0.10027555  0.76477858     0.17700
C788        C  0.93892226  0.13132143  0.85004772     0.25700
C789        C  0.95335600  0.10938838  0.87818148    -0.12000
C790        C  0.97139447  0.07972673  0.87857200    -0.26100
C791        C  0.97458493  0.07255154  0.84982637     0.36600
C792        C  0.96014634  0.09468233  0.82176769    -0.27700
F793        F  0.92109247  0.15897335  0.85016001    -0.19800
H794        H  0.95023303  0.11558995  0.89963920     0.15900
F795        F  0.99127016  0.04391469  0.84845732    -0.23500
H796        H  0.96286018  0.08886654  0.79996334     0.17700
C797        C  0.94430108  0.32884276  0.57654628    -0.27600
C798        C  0.94711354  0.33851567  0.60766362     0.06000
C799        C  0.96467905  0.36895038  0.62493931     0.25600
C800        C  0.97828544  0.39065156  0.61047064    -0.12100
C801        C  0.97483579  0.38194205  0.57869278    -0.26000
C802        C  0.95813682  0.35007817  0.56216623     0.36500
C803        C  0.93112441  0.31717331  0.62158900     0.06000
F804        F  0.96880794  0.37737511  0.65586166    -0.19800
H805        H  0.99132669  0.41447110  0.62410482     0.15900
F806        F  0.95510974  0.33918712  0.53215635    -0.23500
H807        H  0.93104150  0.30504990  0.56319618     0.17700
C808        C  0.90989556  0.33561919  0.62623142     0.25700
C809        C  0.89445350  0.31506279  0.63895820    -0.12000
C810        C  0.90012909  0.27594943  0.64745461    -0.26100
C811        C  0.92120120  0.25740996  0.64232357     0.36600
C812        C  0.93648128  0.27795382  0.62932934    -0.27700
F813        F  0.90391674  0.37334426  0.61804388    -0.19800
H814        H  0.87832889  0.32986675  0.64270012     0.15900
F815        F  0.92664812  0.21933364  0.64926586    -0.23500
H816        H  0.95261133  0.26336954  0.62543603     0.17700
C817        C  0.88479585  0.75502336  0.66324290     0.03800
C818        C  0.85580116  0.75764832  0.64894675    -0.12400
C819        C  0.84043135  0.73912670  0.66318898     0.01300
C820        C  0.85455054  0.71711926  0.69170098    -0.10900
C821        C  0.88348450  0.71409540  0.70599190     0.03700
C822        C  0.89848672  0.73334192  0.69182241    -0.10300
H823        H  0.84525476  0.77356782  0.62635516     0.09300
H824        H  0.84315134  0.70302034  0.70331307     0.06900
H825        H  0.92088555  0.73151587  0.70315286     0.06700
Zr826      Zr  0.49280579  0.67520943  0.49286162     2.17500
O827        O  0.48516354  0.60544822  0.48993919    -0.50700
O828        O  0.44388029  0.69182013  0.46924973    -0.73900
O829        O  0.48118100  0.65158401  0.53562583    -0.80700
O830        O  0.49560195  0.68253706  0.41074452    -0.82400
O831        O  0.50394782  0.68782020  0.58133173    -0.78100
O832        O  0.47885647  0.64570195  0.43950880    -0.89700
O833        O  0.44040978  0.75708135  0.46921168    -0.75700
O834        O  0.49244905  0.72928440  0.52486035    -0.85200
O835        O  0.48668038  0.73071758  0.45947783    -0.84800
O836        O  0.53654836  0.67340699  0.54072920    -0.71600
O837        O  0.53161133  0.67543823  0.47996660    -0.83700
Zr838      Zr  0.56852267  0.78600427  0.52585728     2.26400
Zr839      Zr  0.53631984  0.72927659  0.57187900     2.06300
Zr840      Zr  0.52549313  0.73210340  0.44715860     2.10000
Zr841      Zr  0.48649281  0.78458920  0.49170134     1.78800
O842        O  0.54792375  0.70056990  0.41734853    -0.92500
O843        O  0.46730894  0.80778758  0.52805427    -0.40400
O844        O  0.52492049  0.78748138  0.47823555    -0.77000
O845        O  0.52996779  0.78586879  0.53912278    -0.95700
O846        O  0.57511796  0.73086223  0.55956740    -0.89000
O847        O  0.56913569  0.73177799  0.49416878    -0.91800
C848        C  0.42971983  0.72315794  0.46316662     1.01900
C849        C  0.48163469  0.65369121  0.41351573     1.14900
C850        C  0.48676507  0.66115124  0.56509807     1.05600
O851        O  0.51811875  0.76091184  0.60607376    -0.94000
O852        O  0.56659847  0.77902114  0.60816528    -0.89700
O853        O  0.58529236  0.81327580  0.58002842    -0.82900
C854        C  0.58166972  0.80659033  0.60560881     1.12300
O855        O  0.57505493  0.60621004  0.52832579    -0.95900
Zr856      Zr  0.57525668  0.67667999  0.52764371     1.88900
O857        O  0.61742798  0.77019114  0.54913278    -0.72600
O858        O  0.56765829  0.68826801  0.61600764    -0.51900
O859        O  0.60206827  0.65054921  0.58226210    -0.96500
O860        O  0.59368616  0.64886950  0.49198773    -0.53800
O861        O  0.62103088  0.70502970  0.54658613    -0.73100
C862        C  0.63155463  0.73906291  0.55342981     0.99200
O863        O  0.57058175  0.85648753  0.52543992    -0.61900
O864        O  0.49364169  0.76896093  0.40022011    -0.56700
O865        O  0.58077074  0.81120897  0.48432563    -0.93400
O866        O  0.55395959  0.78030332  0.43686365    -0.91800
O867        O  0.46246497  0.81863415  0.44005596    -0.92200
O868        O  0.48750768  0.85470011  0.49671159    -0.91000
C869        C  0.57246325  0.80535762  0.45365070     1.18100
H870        H  0.46970274  0.72931704  0.43936032     0.34000
H871        H  0.53036505  0.80874120  0.55152793     0.44900
H872        H  0.58406855  0.73370105  0.48781692     0.38400
H873        H  0.53780550  0.65017325  0.55299933     0.34900
H874        H  0.44922463  0.81923778  0.51339543     0.26700
H875        H  0.56966887  0.70145295  0.63621001     0.32600
H876        H  0.60923639  0.67343306  0.59658622     0.38500
H877        H  0.44377968  0.82392405  0.43837816     0.33000
H878        H  0.49718508  0.79628360  0.40730682     0.31800
H879        H  0.54316631  0.71671900  0.39765982     0.33500
H880        H  0.60331994  0.67034655  0.48682020     0.32500
H881        H  0.50671124  0.86205893  0.50145982     0.36500
H882        H  0.55850566  0.86410744  0.50261298     0.29200
H883        H  0.46654379  0.60170157  0.48901348     0.33500
H884        H  0.59473252  0.59846277  0.53691658     0.36300
H885        H  0.50100800  0.76634297  0.38382777     0.28900
H886        H  0.56011337  0.86508125  0.53752976     0.41800
H887        H  0.50931320  0.78476124  0.59401329     0.31800
H888        H  0.46246331  0.78415764  0.53671826     0.39500
H889        H  0.57719817  0.64363695  0.47117312     0.31300
H890        H  0.55688082  0.66460776  0.61490713     0.31400
H891        H  0.49823019  0.59522389  0.51152692     0.31600
C892        C  0.17670205  0.70380347  0.35087594     0.03800
C893        C  0.20564198  0.70075300  0.36523011    -0.12400
C894        C  0.22121411  0.71866341  0.35107646     0.01300
C895        C  0.20747716  0.73972044  0.32198331    -0.10900
C896        C  0.17853224  0.74312574  0.30742403     0.03700
C897        C  0.16322734  0.72527544  0.32197781    -0.10300
H898        H  0.21612934  0.68440939  0.38763272     0.09300
H899        H  0.21927169  0.75425393  0.31107790     0.06900
H900        H  0.14085803  0.72757801  0.31049109     0.06700
C901        C  0.67512388  0.94864392  0.34765208     0.03800
C902        C  0.70422335  0.94758227  0.36348566    -0.12400
C903        C  0.71997664  0.96688321  0.35013238     0.01300
C904        C  0.70631425  0.98681843  0.32049073    -0.10900
C905        C  0.67731796  0.98792740  0.30433999     0.03700
C906        C  0.66182572  0.96894364  0.31810822    -0.10300
H907        H  0.71458097  0.93196218  0.38628551     0.09300
H908        H  0.71883397  0.50027464  0.30987743     0.06900
H909        H  0.63941373  0.97014881  0.30592110     0.06700
Zr910      Zr  0.99297325  0.92679562  0.49047866     2.17500
O911        O  0.98663616  0.85704911  0.48363780    -0.50700
O912        O  0.94365464  0.94155883  0.46633984    -0.73900
O913        O  0.98136965  0.89944275  0.53191203    -0.80700
O914        O  0.00011008  0.93425031  0.41111970    -0.82400
O915        O  0.00491232  0.93173758  0.57957805    -0.78100
O916        O  0.98006833  0.89873672  0.43700317    -0.89700
O917        O  0.94021588  0.50641241  0.46607354    -0.75700
O918        O  0.98998206  0.98045818  0.52139010    -0.85200
O919        O  0.98797518  0.98225836  0.45756231    -0.84800
O920        O  0.03524397  0.92592448  0.54020053    -0.71600
O921        O  0.03374236  0.92767838  0.48149311    -0.83700
Zr922      Zr  0.06779882  0.53999314  0.52806394     2.26400
Zr923      Zr  0.03251828  0.98143637  0.57013018     2.06300
Zr924      Zr  0.02855195  0.98379374  0.44874776     2.10000
Zr925      Zr  0.98580889  0.53569944  0.48926516     1.78800
O926        O  0.05483919  0.95086352  0.42424035    -0.92500
O927        O  0.96315874  0.56060055  0.52143012    -0.40400
O928        O  0.02562091  0.53962334  0.47845735    -0.77000
O929        O  0.02779052  0.53829111  0.53866863    -0.95700
O930        O  0.07301784  0.98449370  0.56117107    -0.89000
O931        O  0.07080481  0.98502528  0.49777709    -0.91800
C932        C  0.92933656  0.97271318  0.46068724     1.01900
C933        C  0.98471160  0.90636766  0.41224172     1.14900
C934        C  0.98792852  0.90544207  0.56221487     1.05600
O935        O  0.00611351  0.51244215  0.59524230    -0.94000
O936        O  0.06317628  0.52916861  0.60916244    -0.89700
O937        O  0.08363528  0.56429067  0.58341314    -0.82900
C938        C  0.07938841  0.55607363  0.60839508     1.12300
O939        O  0.07676129  0.86025134  0.52509469    -0.95900
Zr940      Zr  0.07585178  0.93015696  0.53121590     1.88900
O941        O  0.11682606  0.52588173  0.55346479    -0.72600
O942        O  0.06248893  0.94767939  0.62012515    -0.51900
O943        O  0.09270340  0.89606574  0.58324348    -0.96500
O944        O  0.10207119  0.90802530  0.50218077    -0.53800
O945        O  0.12102784  0.96006129  0.56156447    -0.73100
C946        C  0.13102249  0.99445940  0.56547309     0.99200
O947        O  0.07018918  0.61049169  0.53005824    -0.61900
O948        O  0.99825793  0.51884689  0.39998695    -0.56700
O949        O  0.08081100  0.56644479  0.48709173    -0.93400
O950        O  0.05787052  0.53192981  0.44046242    -0.91800
O951        O  0.96043786  0.56641233  0.43633852    -0.92200
O952        O  0.98941238  0.60573560  0.49476816    -0.91000
C953        C  0.07481934  0.55851234  0.45713403     1.18100
H954        H  0.97154986  0.98059117  0.43690445     0.34000
H955        H  0.02738505  0.56099759  0.55087594     0.44900
H956        H  0.08652084  0.98728087  0.49296458     0.38400
H957        H  0.03627921  0.90260949  0.55228210     0.34900
H958        H  0.94547139  0.57151585  0.50512710     0.26700
H959        H  0.08140600  0.95703514  0.62536211     0.32600
H960        H  0.10638081  0.91374086  0.59936259     0.38500
H961        H  0.94524044  0.58053034  0.43833998     0.33000
H962        H  0.99455827  0.54363598  0.40815243     0.31800
H963        H  0.04718413  0.96076832  0.40157392     0.33500
H964        H  0.11390659  0.93009217  0.50239839     0.32500
H965        H  0.00260202  0.61316956  0.48590454     0.36500
H966        H  0.05861325  0.61909347  0.50737119     0.29200
H967        H  0.96735741  0.85219936  0.48011688     0.33500
H968        H  0.09630132  0.85250225  0.53807735     0.36300
H969        H  0.00993843  0.52600287  0.38897939     0.28900
H970        H  0.05941991  0.61832950  0.54200568     0.41800
H971        H  0.01517166  0.50454114  0.61848204     0.31800
H972        H  0.95764682  0.53735335  0.52986977     0.39500
H973        H  0.08817619  0.90578855  0.47910979     0.31300
H974        H  0.05812786  0.95918602  0.63723017     0.31400
H975        H  0.99838892  0.84577370  0.50531478     0.31600
C976        C  0.38268465  0.51715032  0.66974765     0.03800
C977        C  0.39668191  0.99589873  0.69780358    -0.12400
C978        C  0.38238443  0.97532097  0.71230243     0.01300
C979        C  0.35339845  0.97797396  0.69861686    -0.10900
C980        C  0.33876762  0.00096750  0.67093205    -0.01900
C981        C  0.35375512  0.52010954  0.65658071    -0.10300
H982        H  0.41904036  0.99429822  0.70830411     0.09300
H983        H  0.34213595  0.96148535  0.70916098     0.06900
H984        H  0.34291456  0.53958870  0.63635668     0.06700
C985        C  0.88802623  0.68738853  0.17372982     0.03800
C986        C  0.90292266  0.70977099  0.20197318    -0.12400
C987        C  0.88895990  0.73216155  0.21592686     0.01300
C988        C  0.85986995  0.73148486  0.20153775    -0.10900
C989        C  0.84491384  0.70892253  0.17383672     0.03700
C990        C  0.85895799  0.68690489  0.16012844    -0.10300
H991        H  0.92531771  0.71039438  0.21269547     0.09300
H992        H  0.84874622  0.74869352  0.21177315     0.06900
H993        H  0.84709904  0.67057209  0.13804786     0.06700
Zr994      Zr  0.57368000  0.67882216  0.02598177     2.17500
O995        O  0.57683020  0.60872433  0.02320174    -0.50700
O996        O  0.62245372  0.69584538  0.05366310    -0.73900
O997        O  0.59071944  0.65996037  0.98678023    -0.80700
O998        O  0.56375244  0.67606531  0.10319441    -0.82400
O999        O  0.56849545  0.69663906  0.94130847    -0.78100
O1000       O  0.58720735  0.64676348  0.07824573    -0.89700
O1001       O  0.62563396  0.76110163  0.05847476    -0.75700
O1002       O  0.57702362  0.73681565  0.99973352    -0.85200
O1003       O  0.57626256  0.73024473  0.06187173    -0.84800
O1004       O  0.53299128  0.68034226  0.97465494    -0.71600
O1005       O  0.53178002  0.67449145  0.03260178    -0.83700
Zr1006     Zr  0.49718427  0.78824422  0.99173112     2.26400
Zr1007     Zr  0.53605893  0.73945662  0.94923179     2.06300
Zr1008     Zr  0.53448655  0.72706368  0.06802494     2.10000
Zr1009     Zr  0.57937348  0.78797570  0.03554903     1.78800
O1010       O  0.50608935  0.69014532  0.08759236    -0.92500
O1011       O  0.60253343  0.82185128  0.00751120    -0.40400
O1012       O  0.53784237  0.78645319  0.04288672    -0.77000
O1013       O  0.53884682  0.79232124  0.98454900    -0.95700
O1014       O  0.49420402  0.73706238  0.95534539    -0.89000
O1015       O  0.49385576  0.72986480  0.01749859    -0.91800
C1016       C  0.63646261  0.72735183  0.06281834     1.01900
C1017       C  0.58110533  0.65100256  0.10238511     1.14900
C1018       C  0.58591629  0.67031969  0.95771637     1.05600
O1019       O  0.56079855  0.77591046  0.92452207    -0.94000
O1020       O  0.50539035  0.78860769  0.91301369    -0.89700
O1021       O  0.48259873  0.81834983  0.93867001    -0.82900
C1022       C  0.48813898  0.81359858  0.91419752     1.12300
O1023       O  0.49514543  0.60964248  0.97463150    -0.95900
Zr1024     Zr  0.49124139  0.67893890  0.98131917     1.88900
O1025       O  0.44847309  0.77148652  0.96493153    -0.72600
O1026       O  0.50965363  0.70333843  0.89916909    -0.51900
O1027       O  0.46888799  0.66003732  0.92395861    -0.96500
O1028       O  0.46768972  0.64151839  0.00705792    -0.53800
O1029       O  0.44513771  0.70600282  0.96146460    -0.73100
C1030       C  0.43450107  0.73989781  0.95730419     0.99200
O1031       O  0.49427125  0.85854695  0.99334706    -0.61900
O1032       O  0.56176443  0.75776046  0.12062968    -0.56700
O1033       O  0.48113881  0.80849082  0.03180854    -0.93400
O1034       O  0.50410537  0.77234310  0.07744442    -0.91800
O1035       O  0.60034714  0.81113469  0.09170154    -0.92200
O1036       O  0.57784429  0.85807795  0.03895398    -0.91000
C1037       C  0.48665347  0.79874279  0.06129004     1.18100
H1038       H  0.59213401  0.72764450  0.08289339     0.34000
H1039       H  0.53937686  0.81647514  0.97419895     0.44900
H1040       H  0.47768543  0.72980205  0.02158795     0.38400
H1041       H  0.53302564  0.65866742  0.96134102     0.34900
H1042       H  0.61967491  0.83239095  0.02522755     0.26700
H1043       H  0.49065669  0.71384548  0.89058807     0.32600
H1044       H  0.45834891  0.68306799  0.91215238     0.38500
H1045       H  0.61875218  0.82105624  0.09524224     0.33000
H1046       H  0.55885277  0.78583912  0.11631934     0.31800
H1047       H  0.51741266  0.68812387  0.11150140     0.33500
H1048       H  0.46053023  0.66093541  0.01736868     0.32500
H1049       H  0.55787789  0.86438156  0.02899507     0.36500
H1050       H  0.50395469  0.86547658  0.01677588     0.29200
H1051       H  0.59624950  0.60341089  0.02761424     0.33500
H1052       H  0.47590745  0.60007586  0.96261011     0.36300
H1053       H  0.55184652  0.75153201  0.13395843     0.28900
H1054       H  0.50675179  0.86830972  0.98418458     0.41800
H1055       H  0.57076307  0.79629854  0.94066002     0.31800
H1056       H  0.60907462  0.80110543  0.99765625     0.39500
H1057       H  0.48272947  0.62836359  0.02566532     0.31300
H1058       H  0.51673664  0.71271015  0.88367897     0.31400
H1059       H  0.56575056  0.60199766  0.99989066     0.31600
C1060       C  0.18241967  0.76780667  0.84870274     0.03800
C1061       C  0.16820854  0.74442824  0.82105686    -0.12400
C1062       C  0.18272120  0.72289946  0.80733716     0.01300
C1063       C  0.21178121  0.72490334  0.82175418    -0.10900
C1064       C  0.22614782  0.74831519  0.84912330     0.03700
C1065       C  0.21139626  0.77009561  0.86210448    -0.10300
H1066       H  0.14584141  0.74261176  0.81043799     0.09300
H1067       H  0.22336928  0.70727123  0.81242947     0.06900
H1068       H  0.22264980  0.78882623  0.88279703     0.06700
C1069       C  0.68107492  0.53193042  0.83993761     0.03800
C1070       C  0.71012130  0.53159844  0.85374742    -0.12400
C1071       C  0.72337174  0.01034935  0.83857263     0.01300
C1072       C  0.70811414  0.98843971  0.81045716    -0.10900
C1073       C  0.67902553  0.98830813  0.79601040     0.03700
C1074       C  0.66526175  0.01132563  0.80972918    -0.10300
H1075       H  0.72195747  0.54800277  0.87578102     0.09300
H1076       H  0.71901101  0.97016486  0.80063486     0.06900
H1077       H  0.64286372  0.01243499  0.79820273     0.06700
C1078       C  0.38690210  0.93598721  0.17499038     0.03800
C1079       C  0.35779646  0.93578360  0.15941546    -0.12400
C1080       C  0.34256442  0.95564099  0.17288683     0.01300
C1081       C  0.35644073  0.97666492  0.20182275    -0.10900
C1082       C  0.38546994  0.97894395  0.21705239     0.03700
C1083       C  0.40062426  0.95797043  0.20378241    -0.10300
H1084       H  0.34685940  0.92051537  0.13652348     0.09300
H1085       H  0.34506142  0.48892094  0.21336369     0.06900
H1086       H  0.42303135  0.95925660  0.21557042     0.06700
Zr1087     Zr  0.07151076  0.92638422  0.02518332     2.17500
O1088       O  0.07854612  0.85667081  0.02837140    -0.50700
O1089       O  0.12007561  0.94460513  0.05148858    -0.73900
O1090       O  0.08703979  0.90455860  0.98527418    -0.80700
O1091       O  0.05917397  0.92506061  0.10154890    -0.82400
O1092       O  0.06769638  0.94309664  0.94045523    -0.78100
O1093       O  0.08472933  0.89726776  0.07867237    -0.89700
O1094       O  0.12375198  0.51036428  0.05778357    -0.75700
O1095       O  0.07547828  0.98395784  0.99893282    -0.85200
O1096       O  0.07264564  0.97826923  0.05997302    -0.84800
O1097       O  0.03142067  0.92674651  0.97310397    -0.71600
O1098       O  0.02879935  0.92116072  0.02977793    -0.83700
Zr1099     Zr  0.99436434  0.53446487  0.98727859     2.26400
Zr1100     Zr  0.03524079  0.98583938  0.94779519     2.06300
Zr1101     Zr  0.02985547  0.97402960  0.06401845     2.10000
Zr1102     Zr  0.07693197  0.53631194  0.03433369     1.78800
O1103       O  0.00016827  0.93344611  0.07906714    -0.92500
O1104       O  0.10052168  0.57122867  0.00731551    -0.40400
O1105       O  0.03428069  0.53352469  0.03930408    -0.77000
O1106       O  0.03706769  0.53955893  0.98248237    -0.95700
O1107       O  0.99251196  0.98232671  0.95195061    -0.89000
O1108       O  0.98981265  0.97627188  0.01281136    -0.91800
C1109       C  0.13403548  0.97600459  0.06156179     1.01900
C1110       C  0.07761832  0.90113947  0.10207335     1.14900
C1111       C  0.08353508  0.91536474  0.95673594     1.05600
O1112       O  0.06396359  0.52737816  0.93064777    -0.94000
O1113       O  0.00555653  0.53219861  0.90964112    -0.89700
O1114       O  0.98098697  0.56170539  0.93304939    -0.82900
C1115       C  0.98739890  0.55653186  0.90920185     1.12300
O1116       O  0.99286228  0.85464115  0.97579039    -0.95900
Zr1117     Zr  0.98873686  0.92466649  0.97795855     1.88900
O1118       O  0.94600882  0.51647533  0.95774599    -0.72600
O1119       O  0.01165835  0.95431450  0.89474455    -0.51900
O1120       O  0.96909493  0.90324446  0.92124607    -0.96500
O1121       O  0.96402946  0.89045878  0.00408858    -0.53800
O1122       O  0.94200334  0.95083189  0.95385501    -0.73100
C1123       C  0.93125692  0.98473574  0.94896606     0.99200
O1124       O  0.98953648  0.60444700  0.98855432    -0.61900
O1125       O  0.05496106  0.50550970  0.11760638    -0.56700
O1126       O  0.97707715  0.55539408  0.02623295    -0.93400
O1127       O  0.99939067  0.51939970  0.07210733    -0.91800
O1128       O  0.09599777  0.56121982  0.08995445    -0.92200
O1129       O  0.07417996  0.60650503  0.03555633    -0.91000
C1130       C  0.98205628  0.54560991  0.05558429     1.18100
H1131       H  0.08816370  0.97614096  0.08121997     0.34000
H1132       H  0.03754900  0.56363870  0.97192330     0.44900
H1133       H  0.97323707  0.97630854  0.01614620     0.38400
H1134       H  0.03190968  0.90491821  0.96019618     0.34900
H1135       H  0.11922154  0.57683084  0.02480798     0.26700
H1136       H  0.02291615  0.96070330  0.88303285     0.32600
H1137       H  0.95038927  0.89346783  0.91656301     0.38500
H1138       H  0.11379781  0.57336620  0.09347319     0.33000
H1139       H  0.05466362  0.53339710  0.11260320     0.31800
H1140       H  0.00646408  0.93826025  0.10268551     0.33500
H1141       H  0.95462044  0.91078032  0.01077646     0.32500
H1142       H  0.05414255  0.61225341  0.02416458     0.36500
H1143       H  0.00119287  0.61186535  0.01156368     0.29200
H1144       H  0.09718457  0.85267907  0.02947580     0.33500
H1145       H  0.97371917  0.84482859  0.96350822     0.36300
H1146       H  0.04245474  0.50289099  0.12828184     0.28900
H1147       H  0.99965101  0.61503347  0.97664197     0.41800
H1148       H  0.06375596  0.51405869  0.91129935     0.31800
H1149       H  0.10364379  0.55165902  0.99343836     0.39500
H1150       H  0.97873770  0.88074112  0.02489073     0.31300
H1151       H  0.01454324  0.92628200  0.89933173     0.31400
H1152       H  0.06550565  0.84673158  0.00664454     0.31600
C1153       C  0.26714141  0.94310436  0.15453330    -0.27600
C1154       C  0.25383451  0.96166288  0.12412195     0.06000
C1155       C  0.27075176  0.47763535  0.11003696     0.25600
C1156       C  0.29878519  0.97407306  0.12509051    -0.12100
C1157       C  0.31203827  0.95632620  0.15578652    -0.26000
C1158       C  0.29604025  0.94062403  0.17037910     0.36500
C1159       C  0.22325588  0.96533485  0.10810572     0.06000
F1160       F  0.25875852  0.49586528  0.08072379    -0.19800
H1161       H  0.31177968  0.48669853  0.11432561     0.15900
F1162       F  0.30839882  0.92274513  0.19982747    -0.23500
H1163       H  0.25511938  0.93111932  0.16624915     0.17700
C1164       C  0.20624695  0.93250374  0.10142102     0.25700
C1165       C  0.17741706  0.93627367  0.08640328    -0.12000
C1166       C  0.16483797  0.97289031  0.07787392    -0.26100
C1167       C  0.18206820  0.00582641  0.08486453     0.36600
C1168       C  0.21092264  0.00191046  0.09969569    -0.27700
F1169       F  0.21753431  0.89667310  0.10877286    -0.19800
H1170       H  0.16493738  0.91031337  0.08148450     0.15900
F1171       F  0.17121162  0.04185360  0.07714990    -0.23500
H1172       H  0.22372960  0.02758710  0.10490562     0.17700
C1173       C  0.85444135  0.96239841  0.91635851    -0.27600
C1174       C  0.84261239  0.99665152  0.89956153     0.06000
C1175       C  0.86086556  0.52672962  0.89772256     0.25600
C1176       C  0.88873089  0.02243056  0.91496534    -0.12100
C1177       C  0.90070528  0.98812170  0.93174661    -0.26000
C1178       C  0.88319990  0.95789996  0.93208753     0.36500
C1179       C  0.81217036  0.00125638  0.88381415     0.06000
F1180       F  0.85013416  0.56029090  0.88181282    -0.19800
H1181       H  0.90256222  0.54529731  0.91159596     0.15900
F1182       F  0.89376312  0.92441244  0.94824563    -0.23500
H1183       H  0.84131069  0.93903097  0.91720368     0.17700
C1184       C  0.79821052  0.51020187  0.85079065     0.25700
C1185       C  0.76932095  0.51284396  0.83652683    -0.12000
C1186       C  0.75401337  0.00830518  0.85445878    -0.26100
C1187       C  0.76855732  0.99994543  0.88797934     0.36600
C1188       C  0.79734593  0.99631810  0.90239934    -0.27700
F1189       F  0.81158977  0.51424192  0.83165343    -0.19800
H1190       H  0.75826617  0.51874529  0.81061063     0.15900
F1191       F  0.75488278  0.99391249  0.90656918    -0.23500
H1192       H  0.80814838  0.98957932  0.92818912     0.17700
C1193       C  0.11830489  0.89017365  0.90268719    -0.27600
C1194       C  0.12376614  0.85072084  0.90945926     0.06000
C1195       C  0.11667882  0.83295695  0.93256168     0.25600
C1196       C  0.10396493  0.85432622  0.94820462    -0.12100
C1197       C  0.09819487  0.89372697  0.94117151    -0.26000
C1198       C  0.10581391  0.91165569  0.91853583     0.36500
C1199       C  0.13811949  0.82884468  0.89355848     0.06000
F1200       F  0.12160986  0.79480298  0.93957299    -0.19800
H1201       H  0.09819151  0.83986614  0.96544184     0.15900
F1202       F  0.10197099  0.95013488  0.91245861    -0.23500
H1203       H  0.12428361  0.90453002  0.88558510     0.17700
C1204       C  0.12778534  0.82782772  0.85936762     0.25700
C1205       C  0.14228478  0.80816928  0.84486688    -0.12000
C1206       C  0.16718626  0.78895298  0.86419857    -0.26100
C1207       C  0.17718148  0.78963248  0.89846034     0.36600
C1208       C  0.16282729  0.80956716  0.91285618    -0.27700
F1209       F  0.10343837  0.84521920  0.84003921    -0.19800
H1210       H  0.13411512  0.80818064  0.81849751     0.15900
F1211       F  0.20044221  0.77016810  0.91814567    -0.23500
H1212       H  0.17112403  0.81013506  0.93924463     0.17700
C1213       C  0.35907724  0.71529655  0.93140456    -0.27600
C1214       C  0.34572857  0.74739339  0.91203488     0.06000
C1215       C  0.36187839  0.77769599  0.90881940     0.25600
C1216       C  0.39073888  0.77529835  0.92399706    -0.12100
C1217       C  0.40403215  0.74270558  0.94257677    -0.26000
C1218       C  0.38791844  0.71289732  0.94659368     0.36500
C1219       C  0.31505089  0.74896473  0.89575341     0.06000
F1220       F  0.34983968  0.80995423  0.89152284    -0.19800
H1221       H  0.40270934  0.79878246  0.92081883     0.15900
F1222       F  0.39999233  0.68175186  0.96564295    -0.23500
H1223       H  0.34711052  0.69175172  0.93449906     0.17700
C1224       C  0.30046543  0.75816438  0.86234552     0.25700
C1225       C  0.27151442  0.75826036  0.84730283    -0.12000
C1226       C  0.25670185  0.74879247  0.86516905    -0.26100
C1227       C  0.27120208  0.73907269  0.89834888     0.36600
C1228       C  0.30008477  0.73947832  0.91350074    -0.27700
F1229       F  0.31410725  0.76554312  0.84392271    -0.19800
H1230       H  0.26060517  0.76547350  0.82161784     0.15900
F1231       F  0.25740775  0.72782839  0.91578237    -0.23500
H1232       H  0.31081416  0.73203248  0.93914881     0.17700
C1233       C  0.62785329  0.59613879  0.93670353    -0.27600
C1234       C  0.62898713  0.61329802  0.90937515     0.06000
C1235       C  0.61659919  0.64952015  0.89865581     0.25600
C1236       C  0.60285620  0.66784031  0.91463632    -0.12100
C1237       C  0.60140105  0.65068476  0.94185824    -0.26000
C1238       C  0.61441951  0.61467045  0.95304121     0.36500
C1239       C  0.64230662  0.59277648  0.89150368     0.06000
F1240       F  0.61703960  0.66668721  0.87207347    -0.19800
H1241       H  0.59325598  0.69556609  0.90555506     0.15900
F1242       F  0.61365169  0.59678144  0.97917868    -0.23500
H1243       H  0.63739970  0.56826887  0.94537387     0.17700
C1244       C  0.66366820  0.61024753  0.88628574     0.25700
C1245       C  0.67572993  0.59073724  0.86887737    -0.12000
C1246       C  0.66685069  0.55336411  0.85652404    -0.26100
C1247       C  0.64556038  0.53584991  0.86202366     0.36600
C1248       C  0.63345983  0.55545598  0.87934015    -0.27700
F1249       F  0.67335168  0.64575188  0.89878516    -0.19800
H1250       H  0.69217458  0.60480067  0.86518975     0.15900
F1251       F  0.63522104  0.00088015  0.84844894    -0.23500
H1252       H  0.61710131  0.54148038  0.88327501     0.17700
C1253       C  0.44432085  0.87233397  0.08270225    -0.27600
C1254       C  0.44487489  0.85630503  0.11131670     0.06000
C1255       C  0.45878406  0.82126098  0.12305059     0.25600
C1256       C  0.47231622  0.80297588  0.10673113    -0.12100
C1257       C  0.47189846  0.81884209  0.07800111    -0.26000
C1258       C  0.45743908  0.85373929  0.06595925     0.36500
C1259       C  0.43080137  0.87614856  0.12871915     0.06000
F1260       F  0.45974138  0.80509113  0.15069891    -0.19800
H1261       H  0.48304157  0.77612807  0.11660897     0.15900
F1262       F  0.45620149  0.87028077  0.03830818    -0.23500
H1263       H  0.43347416  0.89920665  0.07316888     0.17700
C1264       C  0.43886008  0.91349727  0.14147999     0.25700
C1265       C  0.42502124  0.93238248  0.15721545    -0.12000
C1266       C  0.40266914  0.91457474  0.16018808    -0.26100
C1267       C  0.39492481  0.87682535  0.14776166     0.36600
C1268       C  0.40900510  0.85783911  0.13238732    -0.27700
F1269       F  0.46026265  0.93157976  0.13889796    -0.19800
H1270       H  0.43135663  0.96139669  0.16636277     0.15900
F1271       F  0.37387483  0.85809111  0.15065775    -0.23500
H1272       H  0.40259514  0.82897566  0.12282377     0.17700
C1273       C  0.76952361  0.68498545  0.14838640    -0.27600
C1274       C  0.75624573  0.71557319  0.12685848     0.06000
C1275       C  0.77249437  0.74354359  0.12076323     0.25600
C1276       C  0.80135719  0.74105455  0.13615282    -0.12100
C1277       C  0.81446849  0.71068089  0.15770377    -0.26000
C1278       C  0.79844461  0.68244326  0.16363483     0.36500
C1279       C  0.72556726  0.71831365  0.11090472     0.06000
F1280       F  0.76046474  0.77283612  0.09941029    -0.19800
H1281       H  0.81356115  0.76277988  0.13117120     0.15900
F1282       F  0.81079599  0.65274513  0.18438680    -0.23500
H1283       H  0.75748256  0.66331626  0.15369005     0.17700
C1284       C  0.70907384  0.68640212  0.09460160     0.25700
C1285       C  0.68023284  0.68956673  0.07915802    -0.12000
C1286       C  0.66714666  0.72456568  0.07960123    -0.26100
C1287       C  0.68374480  0.75644521  0.09630241     0.36600
C1288       C  0.71258600  0.75319138  0.11171887    -0.27700
F1289       F  0.72084774  0.65240592  0.09277528    -0.19800
H1290       H  0.66815377  0.66456895  0.06648328     0.15900
F1291       F  0.67226091  0.79066417  0.09828438    -0.23500
H1292       H  0.72484551  0.77796849  0.12461907     0.17700
C1293       C  0.95131512  0.56809562  0.11468571    -0.27600
C1294       C  0.94003510  0.60491408  0.10435273     0.06000
C1295       C  0.94205286  0.62186730  0.07736181     0.25600
C1296       C  0.95523031  0.60226493  0.06117006    -0.12100
C1297       C  0.96700137  0.56563465  0.07186333    -0.26000
C1298       C  0.96475254  0.54866553  0.09883198     0.36500
C1299       C  0.92682591  0.62573067  0.12234757     0.06000
F1300       F  0.93103414  0.65725109  0.06646109    -0.19800
H1301       H  0.95663418  0.61608452  0.04059033     0.15900
F1302       F  0.97534291  0.51310248  0.10988146    -0.23500
H1303       H  0.95013795  0.55459085  0.13552032     0.17700
C1304       C  0.90559888  0.60839149  0.12797753     0.25700
C1305       C  0.89348390  0.62829289  0.14515930    -0.12000
C1306       C  0.90234150  0.66577253  0.15726607    -0.26100
C1307       C  0.92374062  0.68295220  0.15176505     0.36600
C1308       C  0.93578309  0.66305546  0.13449144    -0.27700
F1309       F  0.89612300  0.57255872  0.11621443    -0.19800
H1310       H  0.87706313  0.61434778  0.14897722     0.15900
F1311       F  0.93236209  0.71952029  0.16195522    -0.23500
H1312       H  0.95223150  0.67683107  0.13061753     0.17700
C1313       C  0.45023395  0.89816638  0.85991257    -0.27600
C1314       C  0.44263106  0.88276412  0.82855063     0.06000
C1315       C  0.45047692  0.84455178  0.82589007     0.25600
C1316       C  0.46610585  0.82293152  0.85385515    -0.12100
C1317       C  0.47315614  0.83806175  0.88507523    -0.26000
C1318       C  0.46474480  0.87584182  0.88787116     0.36500
C1319       C  0.42694711  0.90660074  0.79883504     0.06000
F1320       F  0.44217398  0.82741088  0.79628067    -0.19800
H1321       H  0.47181203  0.79364849  0.85103981     0.15900
F1322       F  0.47079577  0.89144735  0.91758586    -0.23500
H1323       H  0.44507262  0.92765543  0.86290196     0.17700
C1324       C  0.40488492  0.93057678  0.79623549     0.25700
C1325       C  0.39053930  0.95267244  0.76809346    -0.12000
C1326       C  0.39770461  0.95135163  0.74188937    -0.26100
C1327       C  0.41965257  0.92731493  0.74442588     0.36600
C1328       C  0.43417455  0.90558419  0.77265725    -0.27700
F1329       F  0.39675774  0.93226287  0.82054756    -0.19800
H1330       H  0.37389875  0.97117700  0.76691989     0.15900
F1331       F  0.42684054  0.92415838  0.71941802    -0.23500
H1332       H  0.45136333  0.88813414  0.77409169     0.17700
C1333       C  0.20580219  0.97677990  0.62534739    -0.27600
C1334       C  0.21939505  0.00575542  0.61629846     0.06000
C1335       C  0.20375916  0.53392572  0.59091022     0.25600
C1336       C  0.17498077  0.53037154  0.57513826    -0.12100
C1337       C  0.16129752  0.99920409  0.58416500    -0.26000
C1338       C  0.17697512  0.97343906  0.60944944     0.36500
C1339       C  0.24991210  0.00621933  0.63045945     0.06000
F1340       F  0.21617242  0.56289465  0.58207881    -0.19800
H1341       H  0.16321260  0.55065717  0.55595174     0.15900
F1342       F  0.16446269  0.94517650  0.61890569    -0.23500
H1343       H  0.21761043  0.95603566  0.64409355     0.17700
C1344       C  0.26610466  0.00917487  0.66431996     0.25700
C1345       C  0.29497639  0.00802748  0.67728259    -0.12000
C1346       C  0.30813198  0.00342262  0.65673352    -0.26100
C1347       C  0.29180118  0.50112166  0.62157093     0.36600
C1348       C  0.26305064  0.50412608  0.60870634    -0.27700
F1349       F  0.25398856  0.01353313  0.68475441    -0.19800
H1350       H  0.30709979  0.01081336  0.70344355     0.15900
F1351       F  0.30340504  0.49560198  0.60073911    -0.23500
H1352       H  0.25075746  0.50223864  0.58250263     0.17700
C1353       C  0.11514993  0.58758298  0.69718850    -0.27600
C1354       C  0.12234475  0.62596556  0.69416749     0.06000
C1355       C  0.11492765  0.64108614  0.66270713     0.25600
C1356       C  0.10109446  0.61808358  0.63511308    -0.12100
C1357       C  0.09394817  0.57974422  0.63811083    -0.26000
C1358       C  0.10091555  0.56470105  0.66948747     0.36500
C1359       C  0.13809354  0.64983146  0.72370964     0.06000
F1360       F  0.12061781  0.67835336  0.65848789    -0.19800
H1361       H  0.09563407  0.63052389  0.61123726     0.15900
F1362       F  0.09484578  0.52755080  0.67352676    -0.23500
H1363       H  0.12106951  0.57496101  0.72108309     0.17700
C1364       C  0.13068780  0.65102248  0.74978913     0.25700
C1365       C  0.14540107  0.67450271  0.77694906    -0.12000
C1366       C  0.16761009  0.69748929  0.77860661    -0.26100
C1367       C  0.17511939  0.69597361  0.75262104     0.36600
C1368       C  0.16071401  0.67206869  0.72577348    -0.27700
F1369       F  0.10880432  0.63033827  0.74872669    -0.19800
H1370       H  0.13939707  0.67467532  0.79676786     0.15900
F1371       F  0.19580710  0.71850622  0.75254929    -0.23500
H1372       H  0.16724553  0.67110245  0.70640417     0.17700
C1373       C  0.95359630  0.86989143  0.32465899    -0.27600
C1374       C  0.94576804  0.83205218  0.32823636     0.06000
C1375       C  0.95096221  0.81887633  0.35963774     0.25600
C1376       C  0.96363337  0.84315949  0.38673408    -0.12100
C1377       C  0.97146665  0.88104230  0.38318575    -0.26000
C1378       C  0.96627163  0.89421675  0.35175218     0.36500
C1379       C  0.93178716  0.80678215  0.29914257     0.06000
F1380       F  0.94307179  0.78288838  0.36404940    -0.19800
H1381       H  0.96736727  0.83220164  0.41060021     0.15900
F1382       F  0.97277027  0.93088709  0.34699054    -0.23500
H1383       H  0.94992614  0.88065131  0.30076411     0.17700
C1384       C  0.90881985  0.82017195  0.27128132     0.25700
C1385       C  0.89536080  0.79591325  0.24434338    -0.12000
C1386       C  0.90436498  0.75774899  0.24451706    -0.26100
C1387       C  0.92750340  0.74443437  0.27229696     0.36600
C1388       C  0.94107713  0.76881876  0.29922886    -0.27700
F1389       F  0.89882607  0.85635475  0.27043519    -0.19800
H1390       H  0.87773139  0.80701693  0.22323141     0.15900
F1391       F  0.93640506  0.70747889  0.27396015    -0.23500
H1392       H  0.95885402  0.75795590  0.32029865     0.17700
C1393       C  0.79471678  0.47468976  0.41585457    -0.27600
C1394       C  0.80924567  0.96828637  0.39813620     0.06000
C1395       C  0.79490379  0.95870271  0.36482864     0.25600
C1396       C  0.76595574  0.95790246  0.34954490    -0.12100
C1397       C  0.75069432  0.96677627  0.36704100    -0.26000
C1398       C  0.76498458  0.97689792  0.40022321     0.36500
C1399       C  0.84002915  0.96886043  0.41472916     0.06000
F1400       F  0.80884922  0.95116840  0.34679987    -0.19800
H1401       H  0.75538937  0.95034551  0.32390192     0.15900
F1402       F  0.75189473  0.48502488  0.41816612    -0.23500
H1403       H  0.80541172  0.48188350  0.44156381     0.17700
C1404       C  0.85441121  0.00075096  0.43372894     0.25700
C1405       C  0.88331145  0.00116761  0.44905789    -0.12000
C1406       C  0.89865837  0.97002893  0.44568057    -0.26100
C1407       C  0.88428505  0.93796007  0.42677903     0.36600
C1408       C  0.85527068  0.93747974  0.41154582    -0.27700
F1409       F  0.84057520  0.03220574  0.43656392    -0.19800
H1410       H  0.89372055  0.02628657  0.46339286     0.15900
F1411       F  0.89813662  0.90765362  0.42209061    -0.23500
H1412       H  0.84465676  0.91249351  0.39717557     0.17700
C1413       C  0.60999828  0.61192459  0.18915494    -0.27600
C1414       C  0.62310706  0.57785552  0.18680457     0.06000
C1415       C  0.62230843  0.56775350  0.15649151     0.25600
C1416       C  0.60854982  0.59145583  0.12912011    -0.12100
C1417       C  0.59529758  0.62563807  0.13142442    -0.26000
C1418       C  0.59639396  0.63568817  0.16198027     0.36500
C1419       C  0.63789347  0.55371980  0.21635912     0.06000
F1420       F  0.63551201  0.53563329  0.15357473    -0.19800
H1421       H  0.60833820  0.58304794  0.10610121     0.15900
F1422       F  0.58504516  0.66906363  0.16602275    -0.23500
H1423       H  0.61036517  0.62026250  0.21227145     0.17700
C1424       C  0.65757659  0.57052401  0.24540020     0.25700
C1425       C  0.67053849  0.54832819  0.27367977    -0.12000
C1426       C  0.66401791  0.50907291  0.27371078    -0.26100
C1427       C  0.64349087  0.99304356  0.24505773     0.36600
C1428       C  0.63173282  0.51417305  0.21617079    -0.27700
F1429       F  0.66447311  0.60841365  0.24634783    -0.19800
H1430       H  0.68551988  0.56193779  0.29580656     0.15900
F1431       F  0.63726326  0.95494169  0.24459590    -0.23500
H1432       H  0.61659544  0.50067046  0.19410015     0.17700
C1433       C  0.14463628  0.77183313  0.21815238    -0.27600
C1434       C  0.13690432  0.81027284  0.21987246     0.06000
C1435       C  0.14326499  0.82638316  0.25077497     0.25600
C1436       C  0.15677099  0.80431681  0.27915551    -0.12100
C1437       C  0.16429624  0.76599870  0.27726828    -0.26000
C1438       C  0.15822905  0.74984116  0.24660610     0.36500
C1439       C  0.12162626  0.83304973  0.18946568     0.06000
F1440       F  0.13687574  0.86368871  0.25358314    -0.19800
H1441       H  0.16150694  0.81717429  0.30270500     0.15900
F1442       F  0.16509858  0.71264821  0.24422614    -0.23500
H1443       H  0.13969865  0.75861700  0.19468883     0.17700
C1444       C  0.13122571  0.83570877  0.16531142     0.25700
C1445       C  0.11659092  0.85729225  0.13688897    -0.12000
C1446       C  0.09213537  0.87695812  0.13188341    -0.26100
C1447       C  0.08244708  0.87396192  0.15606154     0.36600
C1448       C  0.09705077  0.85220471  0.18438207    -0.27700
F1449       F  0.15524291  0.81846323  0.16960825    -0.19800
H1450       H  0.12479766  0.85917357  0.11903056     0.15900
F1451       F  0.05875996  0.89170320  0.15241236    -0.23500
H1452       H  0.08898938  0.85007143  0.20236660     0.17700
C1453       C  0.10307537  0.58807424  0.39717403    -0.27600
C1454       C  0.11615880  0.62320528  0.41052117     0.06000
C1455       C  0.11504618  0.63750044  0.43879852     0.25600
C1456       C  0.10149172  0.61647610  0.45377424    -0.12100
C1457       C  0.08857800  0.58102987  0.44065027    -0.26000
C1458       C  0.08936966  0.56714243  0.41191555     0.36500
C1459       C  0.13157944  0.64406336  0.39528959     0.06000
F1460       F  0.12782105  0.67117474  0.45252845    -0.19800
H1461       H  0.10117771  0.62795191  0.47573373     0.15900
F1462       F  0.07754313  0.53289351  0.39835513    -0.23500
H1463       H  0.10357351  0.57672869  0.37526281     0.17700
C1464       C  0.15208503  0.62499044  0.38953395     0.25700
C1465       C  0.16648724  0.64459411  0.37494355    -0.12000
C1466       C  0.16080691  0.68356557  0.36589843    -0.26100
C1467       C  0.14052876  0.70283071  0.37203675     0.36600
C1468       C  0.12597751  0.68310527  0.38650719    -0.27700
F1469       F  0.15863724  0.58762791  0.39872986    -0.19800
H1470       H  0.18212133  0.62924646  0.37061924     0.15900
F1471       F  0.13543070  0.74095313  0.36503885    -0.23500
H1472       H  0.11028917  0.69828670  0.39084236     0.17700
C1473       C  0.29615872  0.70373977  0.36698961    -0.27600
C1474       C  0.31010745  0.71256611  0.40039927     0.06000
C1475       C  0.29473527  0.72290637  0.41742135     0.25600
C1476       C  0.26589572  0.72434797  0.40124932    -0.12100
C1477       C  0.25184788  0.71634394  0.36766538    -0.26000
C1478       C  0.26724988  0.70607755  0.35057055     0.36500
C1479       C  0.34067229  0.71437855  0.41680377     0.06000
F1480       F  0.30767922  0.73201239  0.44965646    -0.19800
H1481       H  0.25450302  0.73264412  0.41485402     0.15900
F1482       F  0.25438874  0.69819499  0.31810859    -0.23500
H1483       H  0.30774629  0.69623205  0.35343019     0.17700
C1484       C  0.35700277  0.68197943  0.41869592     0.25700
C1485       C  0.38591993  0.68486033  0.43412792    -0.12000
C1486       C  0.39902914  0.72014847  0.44767591    -0.26100
C1487       C  0.38240823  0.75251919  0.44564045     0.36600
C1488       C  0.35362063  0.74943742  0.43046007    -0.27700
F1489       F  0.34502722  0.64747718  0.40612671    -0.19800
H1490       H  0.39803419  0.65948107  0.43517887     0.15900
F1491       F  0.39377619  0.78727283  0.45835383    -0.23500
H1492       H  0.34129981  0.77474096  0.42901447     0.17700
C1493       C  0.61418248  0.89677677  0.65482137    -0.27600
C1494       C  0.62172426  0.88427917  0.68691976     0.06000
C1495       C  0.61546632  0.84604082  0.69210777     0.25600
C1496       C  0.60229032  0.82089854  0.66563935    -0.12100
C1497       C  0.59534053  0.83325605  0.63360058    -0.26000
C1498       C  0.60124124  0.87169507  0.62846556     0.36500
C1499       C  0.63608397  0.91137129  0.71461243     0.06000
F1500       F  0.62275238  0.83260190  0.72278602    -0.19800
H1501       H  0.59794509  0.79153040  0.67026521     0.15900
F1502       F  0.59378618  0.88559087  0.59788852    -0.23500
H1503       H  0.61802809  0.92631802  0.65004318     0.17700
C1504       C  0.65853566  0.93396902  0.71639041     0.25700
C1505       C  0.67187470  0.95946158  0.74242115    -0.12000
C1506       C  0.66335717  0.96287689  0.76742743    -0.26100
C1507       C  0.64080553  0.94037284  0.76557782     0.36600
C1508       C  0.62728248  0.91511964  0.73933479    -0.27700
F1509       F  0.66812899  0.93068988  0.69342893    -0.19800
H1510       H  0.68907184  0.97646833  0.74310361     0.15900
F1511       F  0.63240855  0.94161314  0.78967471    -0.23500
H1512       H  0.60985277  0.89843617  0.73835081     0.17700
C1513       C  0.44931419  0.56476289  0.36157618    -0.27600
C1514       C  0.44215798  0.57860865  0.32991517     0.06000
C1515       C  0.44805538  0.61740027  0.32590221     0.25600
C1516       C  0.46097107  0.64156010  0.35311982    -0.12100
C1517       C  0.46795468  0.62776392  0.38483758    -0.26000
C1518       C  0.46197823  0.58894483  0.38874638     0.36500
C1519       C  0.42802968  0.55264331  0.30130815     0.06000
F1520       F  0.44175065  0.63181283  0.29572658    -0.19800
H1521       H  0.46528611  0.67125659  0.34931938     0.15900
F1522       F  0.46882579  0.57397742  0.41886086    -0.23500
H1523       H  0.44475038  0.53515425  0.36527322     0.17700
C1524       C  0.43849064  0.51561490  0.30040661     0.25700
C1525       C  0.42204464  0.99072857  0.27423921    -0.12000
C1526       C  0.40026437  0.50339936  0.24683476    -0.26100
C1527       C  0.38978608  0.54045103  0.24792314     0.36600
C1528       C  0.40352403  0.56460668  0.27487369    -0.27700
F1529       F  0.46235037  0.50319856  0.32529264    -0.19800
H1530       H  0.42908504  0.96124582  0.27523452     0.15900
F1531       F  0.36668597  0.55396604  0.22252255    -0.23500
H1532       H  0.39488032  0.59276964  0.27515084     0.17700
C1533       C  0.45120163  0.63738099  0.61884585    -0.27600
C1534       C  0.44379261  0.59852706  0.61075672     0.06000
C1535       C  0.45073274  0.58041471  0.58770132     0.25600
C1536       C  0.46490281  0.60089607  0.57319535    -0.12100
C1537       C  0.47233316  0.63978074  0.58128464    -0.26000
C1538       C  0.46530323  0.65791837  0.60427429     0.36500
C1539       C  0.42837110  0.57745159  0.62598609     0.06000
F1540       F  0.44414502  0.54278783  0.57951420    -0.19800
H1541       H  0.47023088  0.58623589  0.55571039     0.15900
F1542       F  0.47108685  0.69585878  0.61174463    -0.23500
H1543       H  0.44553867  0.65208253  0.63603213     0.17700
C1544       C  0.43806012  0.57680292  0.66011093     0.25700
C1545       C  0.42299389  0.55762940  0.67418036    -0.12000
C1546       C  0.39818772  0.53830322  0.65454610    -0.26100
C1547       C  0.38872235  0.53857357  0.62038065     0.36600
C1548       C  0.40360818  0.55818985  0.60633490    -0.27700
F1549       F  0.46246848  0.59387201  0.67987598    -0.19800
H1550       H  0.43075103  0.55790355  0.70050341     0.15900
F1551       F  0.36555644  0.51885071  0.60056474    -0.23500
H1552       H  0.39574794  0.55837940  0.57999355     0.17700
C1553       C  0.64638108  0.87105408  0.38319069    -0.27600
C1554       C  0.62653739  0.89166357  0.38903715     0.06000
C1555       C  0.62275721  0.93122527  0.38132607     0.25600
C1556       C  0.63854117  0.94959507  0.36772856    -0.12100
C1557       C  0.65854088  0.92895129  0.36207405    -0.26000
C1558       C  0.66232346  0.88944754  0.36994572     0.36500
C1559       C  0.61066584  0.87156179  0.40410076     0.06000
F1560       F  0.60355438  0.95186549  0.38644819    -0.19800
H1561       H  0.63535136  0.98006950  0.36185782     0.15900
F1562       F  0.68099293  0.86841426  0.36414759    -0.23500
H1563       H  0.64971687  0.84063207  0.38923811     0.17700
C1564       C  0.59564669  0.83778334  0.38996263     0.25700
C1565       C  0.58302079  0.81674709  0.40598898    -0.12000
C1566       C  0.58524156  0.82882409  0.43652758    -0.26100
C1567       C  0.59994140  0.86316889  0.45037364     0.36600
C1568       C  0.61230452  0.88436895  0.43409828    -0.27700
F1569       F  0.59326091  0.82508856  0.36064139    -0.19800
H1570       H  0.57191570  0.79053109  0.39469349     0.15900
F1571       F  0.60258424  0.87630563  0.47968993    -0.23500
H1572       H  0.62395612  0.91021297  0.44544547     0.17700
C1573       C  0.76700524  0.77871741  0.62004023    -0.27600
C1574       C  0.75118633  0.74556451  0.61798536     0.06000
C1575       C  0.76493105  0.71098291  0.63217860     0.25600
C1576       C  0.79376857  0.70920370  0.64665929    -0.12100
C1577       C  0.80970028  0.74201847  0.64808843    -0.26000
C1578       C  0.79597912  0.77712219  0.63509934     0.36500
C1579       C  0.72051245  0.74618641  0.59984095     0.06000
F1580       F  0.75043988  0.67878431  0.63218160    -0.19800
H1581       H  0.80363170  0.68180405  0.65638449     0.15900
F1582       F  0.81048967  0.81003393  0.63730044    -0.23500
H1583       H  0.75694687  0.80571704  0.60939577     0.17700
C1584       C  0.70451573  0.77526075  0.60491219     0.25700
C1585       C  0.67556996  0.77345626  0.58886133    -0.12000
C1586       C  0.66208466  0.74246600  0.56789861    -0.26100
C1587       C  0.67815153  0.71412976  0.56210180     0.36600
C1588       C  0.70696518  0.71638610  0.57758782    -0.27700
F1589       F  0.71671580  0.80440350  0.62641718    -0.19800
H1590       H  0.66368865  0.79558618  0.59381286     0.15900
F1591       F  0.66611662  0.68415890  0.54146900    -0.23500
H1592       H  0.71880038  0.69435287  0.57245261     0.17700
C1593       C  0.90727097  0.63052879  0.76556756    -0.27600
C1594       C  0.92832889  0.64807609  0.79294696     0.06000
C1595       C  0.93422040  0.68743729  0.79189497     0.25600
C1596       C  0.91947180  0.70878975  0.76350705    -0.12100
C1597       C  0.89829837  0.69136265  0.73609519    -0.26000
C1598       C  0.89205516  0.65210345  0.73740259     0.36500
C1599       C  0.94384285  0.62524464  0.82269419     0.06000
F1600       F  0.95446626  0.70499710  0.81816405    -0.19800
H1601       H  0.92444088  0.73905415  0.76292508     0.15900
F1602       F  0.87172326  0.63448584  0.71123888    -0.23500
H1603       H  0.90250417  0.60018982  0.76618312     0.17700
C1604       C  0.93997523  0.63158822  0.85080109     0.25700
C1605       C  0.95423365  0.60925204  0.87872901    -0.12000
C1606       C  0.97277798  0.58026508  0.87924283    -0.26100
C1607       C  0.97675919  0.57433683  0.85085062     0.36600
C1608       C  0.96225869  0.59659896  0.82286552    -0.27700
F1609       F  0.92194175  0.65889220  0.85095991    -0.19800
H1610       H  0.95061066  0.61467402  0.89995955     0.15900
F1611       F  0.99435317  0.54689067  0.84978118    -0.23500
H1612       H  0.96541951  0.59155459  0.80125112     0.17700
C1613       C  0.94414977  0.82764453  0.57613343    -0.27600
C1614       C  0.94713657  0.83734275  0.60734660     0.06000
C1615       C  0.96477681  0.86779261  0.62446165     0.25600
C1616       C  0.97837854  0.88932169  0.60990852    -0.12100
C1617       C  0.97472784  0.88071057  0.57806355    -0.26000
C1618       C  0.95785703  0.84892559  0.56155069     0.36500
C1619       C  0.93126740  0.81619446  0.62163277     0.06000
F1620       F  0.96891054  0.87654508  0.65532104    -0.19800
H1621       H  0.99149691  0.91308832  0.62351275     0.15900
F1622       F  0.95444050  0.83827286  0.53132939    -0.23500
H1623       H  0.93078266  0.80392046  0.56282728     0.17700
C1624       C  0.91097416  0.83527678  0.62772572     0.25700
C1625       C  0.89591180  0.81514954  0.64120910    -0.12000
C1626       C  0.90082785  0.77572610  0.64873119    -0.26100
C1627       C  0.92103842  0.75656737  0.64235684     0.36600
C1628       C  0.93604276  0.77673237  0.62874884    -0.27700
F1629       F  0.90533991  0.87315229  0.61993740    -0.19800
H1630       H  0.88046725  0.83039686  0.64596859     0.15900
F1631       F  0.92576849  0.71822633  0.64851037    -0.23500
H1632       H  0.95147148  0.76164571  0.62384616     0.17700
loop_ 
_geom_bond_atom_site_label_1 
_geom_bond_atom_site_label_2 
_geom_bond_distance 
_geom_bond_site_symmetry_2 
_ccdc_geom_bond_type 
C1            C2   1.404       .  A
C1            C6   1.402       .  A
C1          C810   1.479       .  S
C2            C3   1.406       .  A
C2            H7   1.083       .  S
C3            C4   1.405       .  A
C3          C761   1.487       .  S
C4            C5   1.402       .  A
C4            H8   1.083       .  S
C5            C6   1.400       .  A
C5          C781   1.475       .  S
C6            H9   1.084       .  S
Zr10         O11   2.440       .  S
Zr10         O12   2.437       .  S
Zr10         O13   2.424       .  S
Zr10         O16   2.431       .  S
Zr10         O18   2.380       .  S
Zr10         O19   2.378       .  S
Zr10         O20   2.408       .  S
Zr10         O21   2.398       .  S
O11          H67   0.991       .  S
O11          H75   0.990       .  S
O12          C32   1.285       .  A
O13          C34   1.283       .  A
O14         Zr24   2.437       .  S
O14          C33   1.287       .  A
O15         Zr23   2.431       .  S
O15          C34   1.284       .  A
O16          C33   1.285       .  A
O17         Zr25   2.421       .  S
O17          C32   1.282       .  A
O18         Zr23   2.395       .  S
O18         Zr25   2.373       .  S
O19         Zr24   2.384       .  S
O19         Zr25   2.375       .  S
O19          H54   0.968       .  S
O20         Zr23   2.400       .  S
O20         Zr40   2.403       .  S
O20          H57   0.964       .  S
O21         Zr24   2.397       .  S
O21         Zr40   2.401       .  S
Zr22         O47   2.440       .  S
Zr22         O41   2.426       .  S
Zr22         O49   2.421       .  S
Zr22         O37   2.420       .  S
Zr22         O28   2.398       .  S
Zr22         O29   2.399       .  S
Zr22         O30   2.377       .  S
Zr22         O31   2.379       .  S
Zr23         O42   2.435       .  S
Zr23         O35   2.432       .  S
Zr23         O36   2.446       .  S
Zr23         O29   2.396       .  S
Zr23         O30   2.383       .  S
Zr24         O26   2.433       .  S
Zr24         O48   2.436       .  S
Zr24         O50   2.440       .  S
Zr24         O28   2.392       .  S
Zr24         O31   2.388       .  S
Zr25         O51   2.437       .  S
Zr25         O52   2.435       .  S
Zr25         O27   2.436       .  S
Zr25         O28   2.397       .  S
Zr25         O29   2.392       .  S
O26          H63   0.990       .  S
O27          H58   0.990       .  S
O27          H72   0.990       .  S
O29          H55   0.967       .  S
O30         Zr40   2.372       .  S
O31         Zr40   2.371       .  S
O31          H56   0.966       .  S
C32         C670   1.488       .  S
C33         C701   1.489       .  S
C34         C721   1.477       .  S
O35          H71   0.990       .  S
O36          C38   1.287       .  A
O37          C38   1.283       .  A
C38         C681   1.484       .  S
O39         Zr40   2.440       .  S
O39          H68   0.991       .  S
Zr40         O43   2.438       .  S
Zr40         O44   2.439       .  S
Zr40         O45   2.434       .  S
O41          C46   1.284       .  A
O42          H59   0.990       .  S
O42          H74   0.990       .  S
O43          H60   0.990       .  S
O44          H64   0.990       .  S
O44          H73   0.990       .  S
O45          C46   1.285       .  A
C46         C770   1.482       .  S
O47          H66   0.990       .  S
O47          H70   0.990       .  S
O48          H62   0.990       .  S
O48          H69   0.990       .  S
O49          C53   1.283       .  A
O50          C53   1.287       .  A
O51          H61   0.990       .  S
O52          H65   0.989       .  S
C53         C750   1.486       .  S
C76          C77   1.402       .  A
C76          C81   1.405       .  A
C76         C650   1.481       .  S
C77          C78   1.401       .  A
C77          H82   1.084       .  S
C78          C79   1.403       .  A
C78         C661   1.479       .  S
C79          C80   1.405       .  A
C79          H83   1.084       .  S
C80          C81   1.405       .  A
C80         C621   1.479       .  S
C81          H84   1.084       .  S
C85          C86   1.406       .  A
C85          C90   1.405       .  A
C85         C741   1.482       .  S
C86          C87   1.406       .  A
C86          H91   1.084       .  S
C87          C88   1.404       .  A
C87         C581   1.486       .  S
C88          C89   1.403       .  A
C88         H908   1.084       .  S
C89          C90   1.404       .  A
C89        C1426   1.480       .  S
C90          H93   1.084       .  S
H92         C904   1.084   1_545  S
Zr94         O95   2.438       .  S
Zr94         O96   2.438       .  S
Zr94         O97   2.423       .  S
Zr94        O100   2.423       .  S
Zr94        O102   2.378       .  S
Zr94        O103   2.376       .  S
Zr94        O104   2.405   1_655  S
Zr94        O105   2.399   1_655  S
O95         H151   0.990       .  S
O95         H159   0.990   1_655  S
O96         C116   1.285       .  A
O97         C118   1.283       .  A
O98        Zr108   2.438       .  S
O98         C117   1.286   1_455  A
O99        Zr107   2.419       .  S
O99         C118   1.283   1_455  A
O100        C117   1.284       .  A
O101       Zr109   2.419       .  S
O101        C932   1.282   1_545  A
O102       Zr107   2.389   1_655  S
O102       Zr925   2.372       .  S
O103       Zr108   2.380   1_655  S
O103       Zr925   2.375       .  S
O103        H138   0.969       .  S
O104       Zr107   2.397       .  S
O104       Zr124   2.393       .  S
O104        H141   0.964       .  S
O105       Zr108   2.389       .  S
O105       Zr124   2.401       .  S
Zr106       O131   2.443       .  S
Zr106       O125   2.422       .  S
Zr106       O133   2.434       .  S
Zr106       O121   2.429       .  S
Zr106       O112   2.400       .  S
Zr106       O113   2.403       .  S
Zr106       O930   2.380   1_545  S
Zr106       O931   2.379   1_545  S
Zr107       O126   2.437       .  S
Zr107       O935   2.434       .  S
Zr107       O936   2.429       .  S
Zr107       O114   2.382       .  S
Zr107       O929   2.394       .  S
Zr108       O110   2.435       .  S
Zr108       O948   2.437   1_455  S
Zr108       O950   2.418       .  S
Zr108       O115   2.388       .  S
Zr108       O928   2.396       .  S
Zr109       O135   2.435       .  S
Zr109       O136   2.435       .  S
Zr109       O111   2.438       .  S
Zr109       O112   2.401   1_655  S
Zr109       O113   2.390   1_655  S
Zr109       O918   2.372   1_545  S
Zr109       O919   2.376   1_545  S
O110        H147   0.990       .  S
O111        H142   0.990       .  S
O111        H156   0.990       .  S
O112       Zr924   2.395   1_545  S
O113       Zr923   2.397   1_545  S
O113        H139   0.969       .  S
O114       Zr124   2.368       .  S
O114       Zr922   2.380       .  S
O115       Zr124   2.373       .  S
O115       Zr922   2.380       .  S
O115        H140   0.964       .  S
C116        C590   1.486       .  S
C116        O917   1.283       .  A
C117        C561   1.484       .  S
C118        C801   1.481       .  S
O119       Zr923   2.435   1_545  S
O119        H155   0.990       .  S
O120       Zr923   2.427   1_545  S
O120        C122   1.283       .  A
O121        C122   1.285       .  A
C122        C541   1.477       .  S
O123       Zr124   2.438       .  S
O123        H152   0.991       .  S
Zr124       O127   2.438       .  S
Zr124       O128   2.440       .  S
Zr124       O129   2.429       .  S
O125        C946   1.283   1_545  A
O126        H143   0.990       .  S
O126        H158   0.990       .  S
O127        H144   0.990       .  S
O128        H148   0.990       .  S
O128        H157   0.990       .  S
O129        C130   1.284       .  A
C130        C521   1.475       .  S
C130        O941   1.283       .  A
O131        H150   0.990       .  S
O131        H154   0.990       .  S
O132       Zr924   2.435   1_645  S
O132        H146   0.990   1_655  S
O132        H153   0.990   1_655  S
O133        C137   1.286       .  A
O134       Zr924   2.420   1_545  S
O134        C137   1.283       .  A
O135        H145   0.991       .  S
O136        H149   0.990   1_655  S
C137        C641   1.482       .  S
C160        C165   1.404       .  A
C160        C977   1.404   1_545  A
C160        C730   1.485       .  S
C161        C162   1.406       .  A
C161        C976   1.405       .  A
C161        H166   1.083       .  S
C162        C163   1.405       .  A
C162        C510   1.486       .  S
C163        C164   1.405       .  A
C163        H167   1.084       .  S
C164        C981   1.403       .  A
C164        C530   1.484       .  S
C165        C980   1.405       .  A
C165        H168   1.083       .  S
C169        C170   1.408       .  A
C169        C174   1.407       .  A
C169        C490   1.489       .  S
C170        C171   1.406       .  A
C170        H175   1.083       .  S
C171        C172   1.404       .  A
C171        C570   1.483       .  S
C172        C173   1.401       .  A
C172        H176   1.084       .  S
C173        C174   1.404       .  A
C173        C461   1.483       .  S
C174        H177   1.084       .  S
Zr178       O179   2.438       .  S
Zr178       O180   2.428       .  S
Zr178       O181   2.433   1_554  S
Zr178       O184   2.434       .  S
Zr178       O186   2.381   1_554  S
Zr178       O187   2.380       .  S
Zr178       O188   2.402   1_554  S
Zr178       O189   2.397       .  S
O179        H235   0.990       .  S
O179        H243   0.990       .  S
O180        C200   1.284       .  A
O181        C202   1.285       .  A
O182       Zr192   2.431       .  S
O182        C201   1.286       .  A
O183       Zr191   2.429       .  S
O183        C202   1.286       .  A
O184        C201   1.286       .  A
O185       Zr193   2.431       .  S
O185        C200   1.284       .  A
O186       Zr191   2.391       .  S
O186       Zr193   2.373   1_556  S
O187       Zr192   2.386       .  S
O187       Zr193   2.373       .  S
O187        H222   0.968       .  S
O188       Zr191   2.393       .  S
O188       Zr208   2.393       .  S
O188        H225   0.965       .  S
O189       Zr192   2.388       .  S
O189       Zr208   2.396   1_554  S
Zr190       O215   2.443       .  S
Zr190       O209   2.432       .  S
Zr190       O217   2.430   1_556  S
Zr190       O205   2.420       .  S
Zr190       O196   2.402   1_556  S
Zr190       O197   2.404       .  S
Zr190       O198   2.378       .  S
Zr190       O199   2.380   1_556  S
Zr191       O210   2.437       .  S
Zr191       O203   2.433       .  S
Zr191       O204   2.437       .  S
Zr191       O197   2.394       .  S
Zr191       O198   2.381       .  S
Zr192       O194   2.434       .  S
Zr192       O216   2.436       .  S
Zr192       O218   2.431       .  S
Zr192       O196   2.396       .  S
Zr192       O199   2.378       .  S
Zr193       O219   2.436       .  S
Zr193       O220   2.436       .  S
Zr193       O195   2.439       .  S
Zr193       O196   2.402       .  S
Zr193       O197   2.398   1_554  S
O194        H231   0.990       .  S
O195        H226   0.990       .  S
O195        H240   0.990       .  S
O197        H223   0.966       .  S
O198       Zr208   2.371       .  S
O199       Zr208   2.373   1_554  S
O199        H224   0.965       .  S
C200        C470   1.484       .  S
C201        C601   1.488       .  S
C202        C421   1.486       .  S
O203        H239   0.990       .  S
O204        C206   1.287       .  A
O205        C206   1.283       .  A
C206        C501   1.475       .  S
O207       Zr208   2.438       .  S
O207        H236   0.990       .  S
Zr208       O211   2.437       .  S
Zr208       O212   2.437   1_556  S
Zr208       O213   2.426       .  S
O209        C214   1.285       .  A
O210        H227   0.990       .  S
O210        H242   0.990       .  S
O211        H228   0.990       .  S
O212        H232   0.990       .  S
O212        H241   0.990       .  S
O213        C214   1.284       .  A
C214        C401   1.481       .  S
O215        H234   0.990   1_556  S
O215        H238   0.990       .  S
O216        H230   0.990       .  S
O216        H237   0.990       .  S
O217        C221   1.285       .  A
O218        C221   1.285       .  A
O219        H229   0.990       .  S
O220        H233   0.990       .  S
C221        C441   1.483       .  S
C244        C245   1.406       .  A
C244        C249   1.404       .  A
C244        C390   1.487       .  S
C245        C246   1.407       .  A
C245        H250   1.083       .  S
C246        C247   1.405       .  A
C246        C550   1.486       .  S
C247        C248   1.400       .  A
C247        H251   1.083       .  S
C248        C249   1.401       .  A
C248        C410   1.477       .  S
C249        H252   1.083       .  S
C253        C254   1.405       .  A
C253       C1074   1.407       .  A
C253        C430   1.487       .  S
C254       C1071   1.402       .  A
C254        H259   1.083       .  S
C255        C256   1.403       .  A
C255       C1070   1.402       .  A
C255        C370   1.483       .  S
C256        C257   1.406       .  A
C256        H260   1.084       .  S
C257        C258   1.409       .  A
C257        C690   1.492       .  S
C258       C1069   1.408       .  A
C258        H261   1.083       .  S
C262        C263   1.408       .  A
C262        C267   1.411       .  A
C262        C450   1.494       .  S
C263        C264   1.402       .  A
C263        H268   1.083       .  S
C264        C265   1.400       .  A
C264        C341   1.480       .  S
C265        C266   1.406       .  A
C265       H1085   1.083       .  S
C266        C267   1.411       .  A
C266       C1526   1.492       .  S
C267        H270   1.083       .  S
H269       C1081   1.084       .  S
Zr271       O272   2.436       .  S
Zr271       O273   2.421       .  S
Zr271       O274   2.432   1_554  S
Zr271       O277   2.431       .  S
Zr271       O279   2.380   1_554  S
Zr271       O280   2.380       .  S
Zr271       O281   2.402   1_554  S
Zr271       O282   2.400       .  S
O272        H328   0.990       .  S
O272        H336   0.990       .  S
O273        C293   1.283       .  A
O274        C295   1.284       .  A
O275       Zr285   2.436       .  S
O275        C294   1.286       .  A
O276       Zr284   2.424       .  S
O276        C295   1.282       .  A
O277        C294   1.285       .  A
O278       Zr286   2.439       .  S
O278       C1109   1.285   1_545  A
O279       Zr284   2.387       .  S
O279      Zr1102   2.375   1_556  S
O280       Zr285   2.385       .  S
O280      Zr1102   2.373       .  S
O280        H315   0.966       .  S
O281       Zr284   2.397       .  S
O281       Zr301   2.396   1_455  S
O281        H318   0.965       .  S
O282       Zr285   2.390       .  S
O282       Zr301   2.403   1_454  S
Zr283       O308   2.440       .  S
Zr283       O302   2.424       .  S
Zr283       O310   2.441   1_556  S
Zr283       O298   2.438       .  S
Zr283       O289   2.400   1_656  S
Zr283       O290   2.402   1_655  S
Zr283      O1107   2.378   1_545  S
Zr283      O1108   2.380   1_546  S
Zr284       O303   2.439       .  S
Zr284      O1112   2.436       .  S
Zr284      O1113   2.424       .  S
Zr284       O291   2.388   1_455  S
Zr284      O1106   2.396       .  S
Zr285       O287   2.436       .  S
Zr285      O1125   2.435       .  S
Zr285      O1127   2.423   1_455  S
Zr285       O292   2.387   1_455  S
Zr285      O1105   2.396       .  S
Zr286       O312   2.433       .  S
Zr286       O313   2.435       .  S
Zr286       O288   2.438       .  S
Zr286       O289   2.399       .  S
Zr286       O290   2.399   1_554  S
Zr286      O1095   2.373   1_544  S
Zr286      O1096   2.374   1_545  S
O287        H324   0.990       .  S
O288        H319   0.990       .  S
O288        H333   0.990   1_554  S
O289      Zr1101   2.395   1_545  S
O290      Zr1100   2.392   1_545  S
O290        H316   0.968       .  S
O291       Zr301   2.372       .  S
O291      Zr1099   2.377       .  S
O292       Zr301   2.372   1_554  S
O292      Zr1099   2.382   1_554  S
O292        H317   0.967       .  S
C293        C350   1.488       .  S
C293       O1094   1.284       .  A
C294        C630   1.489       .  S
C295        C381   1.479       .  S
O296      Zr1100   2.435   1_545  S
O296        H332   0.990       .  S
O297      Zr1100   2.422   1_545  S
O297        C299   1.283   1_455  A
O298        C299   1.287       .  A
C299        C790   1.487       .  S
O300       Zr301   2.439       .  S
O300        H329   0.990       .  S
Zr301       O304   2.439       .  S
Zr301       O305   2.438   1_556  S
Zr301       O306   2.436       .  S
O302       C1123   1.284   1_545  A
O303        H320   0.990       .  S
O303        H335   0.990       .  S
O304        H321   0.990       .  S
O305        H325   0.990       .  S
O305        H334   0.990       .  S
O306        C307   1.285       .  A
C307        C361   1.482       .  S
C307       O1118   1.284       .  A
O308        H327   0.990   1_556  S
O308        H331   0.990       .  S
O309      Zr1101   2.436   1_545  S
O309        H323   0.990   1_545  S
O309        H330   0.990       .  S
O310        C314   1.287       .  A
O311      Zr1101   2.429   1_645  S
O311        C314   1.285       .  A
O312        H322   0.990       .  S
O313        H326   0.990       .  S
C314        C481   1.489       .  S
C337        C338   1.407       .  A
C337        C342   1.400       .  A
C337        H347   1.083       .  S
C338       C1155   1.408       .  A
C338        C343   1.488       .  S
C339       C1154   1.407       .  A
C339       C1156   1.399       .  A
C339        F344   1.357       .  S
C340        C341   1.403       .  A
C340       C1155   1.399       .  A
C340       H1161   1.083       .  S
C341        C342   1.405       .  A
C342        F346   1.357       .  S
C343        C348   1.406       .  A
C343        C352   1.406       .  A
H345       C1156   1.083       .  S
C348        C349   1.398       .  A
C348        F353   1.357       .  S
C349        C350   1.408       .  A
C349        H354   1.083       .  S
C350        C351   1.410       .  A
C351        C352   1.400       .  A
C351        F355   1.357       .  S
C352        H356   1.083       .  S
C357        C358   1.404       .  A
C357        C362   1.399       .  A
C357        H367   1.083       .  S
C358       C1175   1.405       .  A
C358        C363   1.481       .  S
C359       C1174   1.404   1_545  A
C359       C1176   1.397       .  A
C359        F364   1.357       .  S
C360        C361   1.407       .  A
C360       C1175   1.398       .  A
C360       H1181   1.083       .  S
C361        C362   1.408       .  A
C362        F366   1.357       .  S
C363        C372   1.404       .  A
C363       C1184   1.406       .  A
H365       C1176   1.083       .  S
C368        C369   1.399       .  A
C368       C1179   1.406       .  A
C368        F373   1.358       .  S
C369       C1186   1.405       .  A
C369        H374   1.083       .  S
C370        C371   1.407       .  A
C370       C1185   1.405       .  A
C371        C372   1.397       .  A
C371        F375   1.358       .  S
C372        H376   1.083       .  S
C377        C378   1.403       .  A
C377        C382   1.398       .  A
C377        H387   1.083       .  S
C378        C379   1.407       .  A
C378        C383   1.481       .  S
C379        C380   1.398       .  A
C379        F384   1.357       .  S
C380        C381   1.405       .  A
C380        H385   1.083       .  S
C381        C382   1.408       .  A
C382        F386   1.358       .  S
C383        C388   1.406       .  A
C383        C392   1.402       .  A
C388        C389   1.399       .  A
C388        F393   1.357       .  S
C389        C390   1.406       .  A
C389        H394   1.083       .  S
C390        C391   1.410       .  A
C391        C392   1.397       .  A
C391        F395   1.357       .  S
C392        H396   1.083       .  S
C397        C398   1.402       .  A
C397        C402   1.395       .  A
C397        H407   1.083       .  S
C398        C399   1.406       .  A
C398        C403   1.479       .  S
C399        C400   1.400       .  A
C399        F404   1.357       .  S
C400        C401   1.407       .  A
C400        H405   1.083       .  S
C401        C402   1.409       .  A
C402        F406   1.358       .  S
C403        C408   1.407       .  A
C403        C412   1.403       .  A
C408        C409   1.399       .  A
C408        F413   1.357       .  S
C409        C410   1.404       .  A
C409        H414   1.083       .  S
C410        C411   1.405       .  A
C411        C412   1.395       .  A
C411        F415   1.358       .  S
C412        H416   1.083       .  S
C417        C418   1.403       .  A
C417        C422   1.399       .  A
C417        H427   1.083       .  S
C418        C419   1.403       .  A
C418        C423   1.478       .  S
C419        C420   1.396       .  A
C419        F424   1.357       .  S
C420        C421   1.407       .  A
C420        H425   1.083       .  S
C421        C422   1.412       .  A
C422        F426   1.357       .  S
C423        C428   1.405       .  A
C423        C432   1.402       .  A
C428        C429   1.398       .  A
C428        F433   1.358       .  S
C429        C430   1.407       .  A
C429        H434   1.083       .  S
C430        C431   1.409       .  A
C431        C432   1.397       .  A
C431       F1251   1.357       .  S
C432        H436   1.083       .  S
F435       C1247   1.357       .  S
C437        C438   1.404       .  A
C437        C442   1.400       .  A
C437        H447   1.083       .  S
C438        C439   1.405       .  A
C438        C443   1.483       .  S
C439        C440   1.397       .  A
C439        F444   1.357       .  S
C440        C441   1.407       .  A
C440        H445   1.083       .  S
C441        C442   1.410       .  A
C442        F446   1.358       .  S
C443        C448   1.405       .  A
C443        C452   1.402       .  A
C448        C449   1.402       .  A
C448        F453   1.358       .  S
C449        C450   1.409       .  A
C449        H454   1.083       .  S
C450        C451   1.411       .  A
C451        C452   1.398       .  A
C451        F455   1.357       .  S
C452        H456   1.083       .  S
C457        C458   1.404       .  A
C457        C462   1.402       .  A
C457        H467   1.083       .  S
C458        C459   1.405       .  A
C458        C463   1.481       .  S
C459        C460   1.396       .  A
C459        F464   1.357       .  S
C460        C461   1.403       .  A
C460        H465   1.083       .  S
C461        C462   1.409       .  A
C462        F466   1.358       .  S
C463        C468   1.405       .  A
C463        C472   1.403       .  A
C468        C469   1.400       .  A
C468        F473   1.357       .  S
C469        C470   1.408       .  A
C469        H474   1.083       .  S
C470        C471   1.410       .  A
C471        C472   1.397       .  A
C471        F475   1.358       .  S
C472        H476   1.083       .  S
C477        C478   1.401       .  A
C477        C482   1.396       .  A
C477        H487   1.083       .  S
C478        C479   1.407       .  A
C478        C483   1.484       .  S
C479        C480   1.403       .  A
C479        F484   1.358       .  S
C480        C481   1.409       .  A
C480        H485   1.083       .  S
C481        C482   1.411       .  A
C482        F486   1.357       .  S
C483        C488   1.406       .  A
C483        C492   1.404       .  A
C488        C489   1.398       .  A
C488        F493   1.358       .  S
C489        C490   1.406       .  A
C489        H494   1.083       .  S
C490        C491   1.410       .  A
C491        C492   1.401       .  A
C491        F495   1.357       .  S
C492        H496   1.083       .  S
C497        C498   1.407       .  A
C497        C502   1.398       .  A
C497        H507   1.083       .  S
C498        C499   1.410       .  A
C498        C503   1.489       .  S
C499        C500   1.396       .  A
C499        F504   1.357       .  S
C500        C501   1.402       .  A
C500        H505   1.084       .  S
C501        C502   1.407       .  A
C502        F506   1.358       .  S
C503        C508   1.409       .  A
C503        C512   1.406       .  A
C508        C509   1.398       .  A
C508        F513   1.357       .  S
C509        C510   1.405       .  A
C509        H514   1.083       .  S
C510        C511   1.407       .  A
C511        C512   1.397       .  A
C511        F515   1.357       .  S
C512        H516   1.083       .  S
C517        C518   1.403       .  A
C517        C522   1.397       .  A
C517        H527   1.083       .  S
C518       C1335   1.404       .  A
C518        C523   1.476       .  S
C519        C520   1.397       .  A
C519       C1334   1.404       .  A
C519        F524   1.358       .  S
C520       C1337   1.406   1_545  A
C520        H525   1.083       .  S
C521        C522   1.408       .  A
C521       C1336   1.404       .  A
C522        F526   1.358       .  S
C523        C528   1.404       .  A
C523       C1348   1.402       .  A
C528        C529   1.398       .  A
C528        F533   1.357       .  S
C529        C530   1.406       .  A
C529        H534   1.083       .  S
C530       C1347   1.409       .  A
C531        C532   1.396       .  A
C531       C1346   1.409       .  A
C531        F535   1.358   1_545  S
C532       C1339   1.402       .  A
C532        H536   1.084   1_545  S
C537        C538   1.405       .  A
C537        C542   1.398       .  A
C537        H547   1.083       .  S
C538        C539   1.408       .  A
C538        C543   1.484       .  S
C539        C540   1.395       .  A
C539        F544   1.358       .  S
C540        C541   1.403       .  A
C540        H545   1.083       .  S
C541        C542   1.408       .  A
C542        F546   1.358       .  S
C543        C548   1.408       .  A
C543        C552   1.404       .  A
C548        C549   1.399       .  A
C548        F553   1.358       .  S
C549        C550   1.407       .  A
C549        H554   1.083       .  S
C550        C551   1.408       .  A
C551        C552   1.395       .  A
C551        F555   1.357       .  S
C552        H556   1.083       .  S
C557        C558   1.405       .  A
C557        C562   1.399       .  A
C557        H567   1.083       .  S
C558        C559   1.408       .  A
C558        C563   1.487       .  S
C559        C560   1.399       .  A
C559        F564   1.358       .  S
C560        C561   1.407       .  A
C560        H565   1.083       .  S
C561        C562   1.408       .  A
C562        F566   1.357       .  S
C563        C568   1.408       .  A
C563        C572   1.407       .  A
C568        C569   1.396       .  A
C568        F573   1.357       .  S
C569        C570   1.404       .  A
C569        H574   1.083       .  S
C570        C571   1.406       .  A
C571        C572   1.401       .  A
C571        F575   1.357       .  S
C572        H576   1.083       .  S
C577       C1394   1.407       .  A
C577       C1398   1.400       .  A
C577        H587   1.083       .  S
C578        C579   1.406       .  A
C578       C1393   1.407       .  A
C578        C583   1.486       .  S
C579        C580   1.399       .  A
C579        F584   1.357       .  S
C580        C581   1.405       .  A
C580        H585   1.083       .  S
C581        C582   1.408       .  A
C582       C1393   1.400       .  A
C582       F1402   1.358       .  S
C583        C588   1.404       .  A
C583        C592   1.407       .  A
F586       C1398   1.358       .  S
C588        C589   1.396       .  A
C588        F593   1.357       .  S
C589        C590   1.407       .  A
C589        H594   1.083       .  S
C590        C591   1.410       .  A
C591        C592   1.403       .  A
C591        F595   1.358       .  S
C592        H596   1.083       .  S
C597        C598   1.402       .  A
C597        C602   1.396       .  A
C597        H607   1.083       .  S
C598        C599   1.406       .  A
C598        C603   1.482       .  S
C599        C600   1.402       .  A
C599        F604   1.358       .  S
C600        C601   1.409       .  A
C600        H605   1.083       .  S
C601        C602   1.411       .  A
C602        F606   1.357       .  S
C603        C608   1.406       .  A
C603        C612   1.405       .  A
C608        C609   1.397       .  A
C608        F613   1.357       .  S
C609        C610   1.403       .  A
C609        H614   1.083       .  S
C610       C1427   1.407   1_545  A
C610        C905   1.480   1_545  S
C611       C1426   1.406       .  A
C611       C1428   1.402       .  A
C611        F615   1.358       .  S
C612       C1427   1.401   1_545  A
C612        H616   1.083       .  S
C617        C618   1.405       .  A
C617        C622   1.400       .  A
C617        H627   1.083       .  S
C618        C619   1.407       .  A
C618        C623   1.483       .  S
C619        C620   1.398       .  A
C619        F624   1.357       .  S
C620        C621   1.403       .  A
C620        H625   1.083       .  S
C621        C622   1.406       .  A
C622        F626   1.358       .  S
C623        C628   1.406       .  A
C623        C632   1.402       .  A
C628        C629   1.401       .  A
C628        F633   1.358       .  S
C629        C630   1.409       .  A
C629        H634   1.083       .  S
C630        C631   1.411       .  A
C631        C632   1.398       .  A
C631        F635   1.357       .  S
C632        H636   1.083       .  S
C637        C638   1.402       .  A
C637        C642   1.395       .  A
C637        H647   1.084       .  S
C638        C639   1.404       .  A
C638        C643   1.476       .  S
C639        C640   1.397       .  A
C639        F644   1.357       .  S
C640        C641   1.407       .  A
C640        H645   1.083       .  S
C641        C642   1.412       .  A
C642        F646   1.358       .  S
C643        C648   1.404       .  A
C643        C652   1.404       .  A
C648        C649   1.394       .  A
C648        F653   1.358       .  S
C649        C650   1.405       .  A
C649        H654   1.083       .  S
C650        C651   1.408       .  A
C651        C652   1.399       .  A
C651        F655   1.357       .  S
C652        H656   1.083       .  S
C657        C658   1.404       .  A
C657        C662   1.401       .  A
C657        H667   1.083       .  S
C658        C659   1.403       .  A
C658        C663   1.476       .  S
C659        C660   1.394       .  A
C659        F664   1.357       .  S
C660        C661   1.404       .  A
C660        H665   1.083       .  S
C661        C662   1.408       .  A
C662        F666   1.358       .  S
C663        C668   1.403       .  A
C663        C672   1.400       .  A
C668        C669   1.401       .  A
C668        F673   1.357       .  S
C669        C670   1.409       .  A
C669        H674   1.083       .  S
C670        C671   1.413       .  A
C671        C672   1.395       .  A
C671        F675   1.357       .  S
C672        H676   1.084       .  S
C677        C678   1.403       .  A
C677        C682   1.396       .  A
C677        H687   1.083       .  S
C678        C679   1.410       .  A
C678        C683   1.490       .  S
C679        C680   1.403       .  A
C679        F684   1.357       .  S
C680        C681   1.405       .  A
C680        H685   1.083       .  S
C681        C682   1.409       .  A
C682        F686   1.357       .  S
C683        C688   1.408       .  A
C683        C692   1.405       .  A
C688        C689   1.399       .  A
C688        F693   1.358       .  S
C689        C690   1.407       .  A
C689        H694   1.083       .  S
C690        C691   1.410       .  A
C691        C692   1.401       .  A
C691        F695   1.357       .  S
C692        H696   1.083       .  S
C697        C698   1.403       .  A
C697        C702   1.399       .  A
C697        H707   1.083       .  S
C698        C699   1.409       .  A
C698        C703   1.489       .  S
C699        C700   1.401       .  A
C699        F704   1.358       .  S
C700        C701   1.408       .  A
C700        H705   1.083       .  S
C701        C702   1.411       .  A
C702        F706   1.357       .  S
C703        C708   1.410       .  A
C703        C712   1.404       .  A
C708       C1525   1.403   1_545  A
C708        F713   1.357       .  S
C709       C1524   1.401       .  A
C709       C1526   1.406       .  A
C709        H714   1.083       .  S
C710        C711   1.410       .  A
C710       C1525   1.405   1_545  A
C710       C1082   1.489   1_545  S
C711        C712   1.399       .  A
C711        F715   1.357       .  S
C712        H716   1.083       .  S
C717        C718   1.405       .  A
C717        C722   1.398       .  A
C717        H727   1.083       .  S
C718        C719   1.406       .  A
C718        C723   1.482       .  S
C719        C720   1.397       .  A
C719        F724   1.357       .  S
C720        C721   1.405       .  A
C720        H725   1.083       .  S
C721        C722   1.407       .  A
C722        F726   1.358       .  S
C723        C728   1.406       .  A
C723        C732   1.405       .  A
C728        C729   1.397       .  A
C728        F733   1.357       .  S
C729        C730   1.405       .  A
C729        H734   1.083       .  S
C730        C731   1.409       .  A
C731        C732   1.399       .  A
C731        F735   1.358       .  S
C732        H736   1.083       .  S
C737        C738   1.402       .  A
C737        C742   1.397       .  A
C737        H747   1.083       .  S
C738        C739   1.406       .  A
C738        C743   1.479       .  S
C739        C740   1.401       .  A
C739        F744   1.358       .  S
C740        C741   1.406       .  A
C740        H745   1.083       .  S
C741        C742   1.406       .  A
C742        F746   1.357       .  S
C743        C748   1.405       .  A
C743        C752   1.401       .  A
C748        C749   1.398       .  A
C748        F753   1.357       .  S
C749        C750   1.407       .  A
C749        H754   1.083       .  S
C750        C751   1.413       .  A
C751        C752   1.398       .  A
C751        F755   1.358       .  S
C752        H756   1.083       .  S
C757        C758   1.404       .  A
C757        C762   1.399       .  A
C757        H767   1.083       .  S
C758        C759   1.408       .  A
C758        C763   1.485       .  S
C759        C760   1.395       .  A
C759        F764   1.358       .  S
C760        C761   1.405       .  A
C760        H765   1.083       .  S
C761        C762   1.410       .  A
C762        F766   1.357       .  S
C763        C768   1.408       .  A
C763        C772   1.404       .  A
C768        C769   1.401       .  A
C768        F773   1.358       .  S
C769        C770   1.407       .  A
C769        H774   1.083       .  S
C770        C771   1.407       .  A
C771        C772   1.395       .  A
C771        F775   1.357       .  S
C772        H776   1.083       .  S
C777        C778   1.402       .  A
C777        C782   1.397       .  A
C777        H787   1.083       .  S
C778        C779   1.404       .  A
C778        C783   1.472       .  S
C779        C780   1.397       .  A
C779        F784   1.357       .  S
C780        C781   1.404       .  A
C780        H785   1.083       .  S
C781        C782   1.406       .  A
C782        F786   1.358       .  S
C783        C788   1.401       .  A
C783        C792   1.400       .  A
C788        C789   1.396       .  A
C788        F793   1.357       .  S
C789        C790   1.408       .  A
C789        H794   1.083       .  S
C790        C791   1.414       .  A
C791        C792   1.398       .  A
C791        F795   1.358       .  S
C792        H796   1.084       .  S
C797        C798   1.398       .  A
C797        C802   1.394       .  A
C797        H807   1.083       .  S
C798        C799   1.402       .  A
C798        C803   1.469       .  S
C799        C800   1.396       .  A
C799        F804   1.358       .  S
C800        C801   1.409       .  A
C800        H805   1.083       .  S
C801        C802   1.412       .  A
C802        F806   1.357       .  S
C803        C808   1.403       .  A
C803        C812   1.401       .  A
C808        C809   1.395       .  A
C808        F813   1.358       .  S
C809        C810   1.405       .  A
C809        H814   1.083       .  S
C810        C811   1.408       .  A
C811        C812   1.397       .  A
C811        F815   1.357       .  S
C812        H816   1.083       .  S
C817        C818   1.404       .  A
C817        C822   1.400       .  A
C817       C1626   1.478       .  S
C818        C819   1.406       .  A
C818        H823   1.083       .  S
C819        C820   1.407       .  A
C819       C1577   1.489       .  S
C820        C821   1.402       .  A
C820        H824   1.083       .  S
C821        C822   1.400       .  A
C821       C1597   1.476       .  S
C822        H825   1.084       .  S
Zr826       O827   2.442       .  S
Zr826       O828   2.435       .  S
Zr826       O829   2.430       .  S
Zr826       O832   2.431       .  S
Zr826       O834   2.378       .  S
Zr826       O835   2.381       .  S
Zr826       O836   2.407       .  S
Zr826       O837   2.400       .  S
O827        H883   0.991       .  S
O827        H891   0.990       .  S
O828        C848   1.285       .  A
O829        C850   1.284       .  A
O830       Zr840   2.435       .  S
O830        C849   1.286       .  A
O831       Zr839   2.431       .  S
O831        C850   1.285       .  A
O832        C849   1.286       .  A
O833       Zr841   2.420       .  S
O833        C848   1.282       .  A
O834       Zr839   2.392       .  S
O834       Zr841   2.371       .  S
O835       Zr840   2.385       .  S
O835       Zr841   2.376       .  S
O835        H870   0.971       .  S
O836       Zr839   2.402       .  S
O836       Zr856   2.403       .  S
O836        H873   0.964       .  S
O837       Zr840   2.399       .  S
O837       Zr856   2.399       .  S
Zr838       O863   2.442       .  S
Zr838       O857   2.428       .  S
Zr838       O865   2.419       .  S
Zr838       O853   2.417       .  S
Zr838       O844   2.397       .  S
Zr838       O845   2.398       .  S
Zr838       O846   2.376       .  S
Zr838       O847   2.377       .  S
Zr839       O858   2.436       .  S
Zr839       O851   2.433       .  S
Zr839       O852   2.445       .  S
Zr839       O845   2.394       .  S
Zr839       O846   2.384       .  S
Zr840       O842   2.434       .  S
Zr840       O864   2.435       .  S
Zr840       O866   2.440       .  S
Zr840       O844   2.391       .  S
Zr840       O847   2.385       .  S
Zr841       O867   2.435       .  S
Zr841       O868   2.436       .  S
Zr841       O843   2.438       .  S
Zr841       O844   2.399       .  S
Zr841       O845   2.389       .  S
O842        H879   0.990       .  S
O843        H874   0.990       .  S
O843        H888   0.990       .  S
O845        H871   0.968       .  S
O846       Zr856   2.376       .  S
O847       Zr856   2.372       .  S
O847        H872   0.967       .  S
C848       C1486   1.486       .  S
C849       C1517   1.486       .  S
C850       C1537   1.479       .  S
O851        H887   0.990       .  S
O852        C854   1.288       .  A
O853        C854   1.283       .  A
C854       C1497   1.481       .  S
O855       Zr856   2.439       .  S
O855        H884   0.991       .  S
Zr856       O859   2.438       .  S
Zr856       O860   2.440       .  S
Zr856       O861   2.426       .  S
O857        C862   1.284       .  A
O858        H875   0.990       .  S
O858        H890   0.990       .  S
O859        H876   0.990       .  S
O860        H880   0.990       .  S
O860        H889   0.990       .  S
O861        C862   1.283       .  A
C862       C1586   1.480       .  S
O863        H882   0.990       .  S
O863        H886   0.990       .  S
O864        H878   0.990       .  S
O864        H885   0.990       .  S
O865        C869   1.283       .  A
O866        C869   1.287       .  A
O867        H877   0.990       .  S
O868        H881   0.990       .  S
C869       C1566   1.484       .  S
C892        C893   1.403       .  A
C892        C897   1.405       .  A
C892       C1466   1.481       .  S
C893        C894   1.403       .  A
C893        H898   1.084       .  S
C894        C895   1.406       .  A
C894       C1477   1.483       .  S
C895        C896   1.404       .  A
C895        H899   1.084       .  S
C896        C897   1.404       .  A
C896       C1437   1.476       .  S
C897        H900   1.084       .  S
C901        C902   1.407       .  A
C901        C906   1.405       .  A
C901       C1557   1.482       .  S
C902        C903   1.407       .  A
C902        H907   1.084       .  S
C903        C904   1.404       .  A
C903       C1397   1.485       .  S
C904        C905   1.402       .  A
C905        C906   1.404       .  A
C906        H909   1.084       .  S
Zr910       O911   2.438       .  S
Zr910       O912   2.439       .  S
Zr910       O913   2.422       .  S
Zr910       O916   2.424       .  S
Zr910       O918   2.379       .  S
Zr910       O919   2.376       .  S
Zr910       O920   2.405   1_655  S
Zr910       O921   2.398   1_655  S
O911        H967   0.990       .  S
O911        H975   0.990       .  S
O912        C932   1.285       .  A
O913        C934   1.283       .  A
O914       Zr924   2.431       .  S
O914        C933   1.285   1_455  A
O915       Zr923   2.426       .  S
O915        C934   1.285   1_455  A
O916        C933   1.284       .  A
O917       Zr925   2.422       .  S
O918       Zr923   2.389   1_655  S
O919       Zr924   2.383   1_655  S
O919        H954   0.970       .  S
O920       Zr923   2.398       .  S
O920       Zr940   2.393       .  S
O920        H957   0.964       .  S
O921       Zr924   2.389       .  S
O921       Zr940   2.402       .  S
Zr922       O947   2.443       .  S
Zr922       O941   2.419       .  S
Zr922       O949   2.437       .  S
Zr922       O937   2.430       .  S
Zr922       O928   2.399       .  S
Zr922       O929   2.401       .  S
Zr923       O942   2.436       .  S
Zr923       O930   2.385       .  S
Zr924       O926   2.435       .  S
Zr924       O931   2.388       .  S
Zr925       O951   2.434       .  S
Zr925       O952   2.436       .  S
Zr925       O927   2.436       .  S
Zr925       O928   2.399   1_655  S
Zr925       O929   2.390   1_655  S
O926        H963   0.990       .  S
O927        H958   0.990       .  S
O927        H972   0.990       .  S
O929        H955   0.969       .  S
O930       Zr940   2.368       .  S
O931       Zr940   2.373       .  S
O931        H956   0.964       .  S
C932       C1406   1.485       .  S
C933       C1377   1.483       .  S
C934       C1617   1.483       .  S
O935        H971   0.990       .  S
O936        C938   1.284       .  A
O937        C938   1.286       .  A
C938       C1357   1.478       .  S
O939       Zr940   2.439       .  S
O939        H968   0.991       .  S
Zr940       O943   2.438       .  S
Zr940       O944   2.440       .  S
Zr940       O945   2.434       .  S
O942        H959   0.990       .  S
O942        H974   0.990       .  S
O943        H960   0.990       .  S
O944        H964   0.990       .  S
O944        H973   0.990       .  S
O945        C946   1.285       .  A
C946       C1337   1.478       .  S
O947        H966   0.990       .  S
O947        H970   0.990       .  S
O948        H962   0.990       .  S
O948        H969   0.990   1_655  S
O949        C953   1.287       .  A
O950        C953   1.282       .  A
O951        H961   0.990       .  S
O952        H965   0.990   1_655  S
C953       C1457   1.483       .  S
C976        C981   1.404       .  A
C976       C1546   1.486       .  S
C977        C978   1.405       .  A
C977        H982   1.083       .  S
C978        C979   1.405       .  A
C978       C1326   1.487       .  S
C979        C980   1.405   1_565  A
C979        H983   1.084       .  S
C980       C1346   1.484       .  S
C981        H984   1.083       .  S
C985        C986   1.411       .  A
C985        C990   1.406       .  A
C985       C1306   1.490       .  S
C986        C987   1.410       .  A
C986        H991   1.083       .  S
C987        C988   1.406       .  A
C987       C1386   1.490       .  S
C988        C989   1.399       .  A
C988        H992   1.084       .  S
C989        C990   1.398       .  A
C989       C1277   1.472       .  S
C990        H993   1.084       .  S
Zr994       O995   2.440       .  S
Zr994       O996   2.430       .  S
Zr994       O997   2.426   1_554  S
Zr994      O1000   2.430       .  S
Zr994      O1002   2.381   1_554  S
Zr994      O1003   2.379       .  S
Zr994      O1004   2.403   1_554  S
Zr994      O1005   2.402       .  S
O995       H1051   0.990       .  S
O995       H1059   0.991   1_554  S
O996       C1016   1.285       .  A
O997       C1018   1.283       .  A
O998      Zr1008   2.441       .  S
O998       C1017   1.287       .  A
O999      Zr1007   2.435       .  S
O999       C1018   1.286       .  A
O1000      C1017   1.285       .  A
O1001     Zr1009   2.423       .  S
O1001      C1016   1.282       .  A
O1002     Zr1007   2.390       .  S
O1002     Zr1009   2.373   1_556  S
O1003     Zr1008   2.382       .  S
O1003     Zr1009   2.372       .  S
O1003      H1038   0.968       .  S
O1004     Zr1007   2.390       .  S
O1004     Zr1024   2.392       .  S
O1004      H1041   0.965       .  S
O1005     Zr1008   2.394       .  S
O1005     Zr1024   2.402   1_554  S
Zr1006     O1031   2.442       .  S
Zr1006     O1025   2.423       .  S
Zr1006     O1033   2.438   1_556  S
Zr1006     O1021   2.425       .  S
Zr1006     O1012   2.397   1_556  S
Zr1006     O1013   2.403       .  S
Zr1006     O1014   2.383       .  S
Zr1006     O1015   2.381   1_556  S
Zr1007     O1026   2.436       .  S
Zr1007     O1019   2.433       .  S
Zr1007     O1020   2.441       .  S
Zr1007     O1013   2.398       .  S
Zr1007     O1014   2.385       .  S
Zr1008     O1010   2.435       .  S
Zr1008     O1032   2.437       .  S
Zr1008     O1034   2.435       .  S
Zr1008     O1012   2.396       .  S
Zr1008     O1015   2.382       .  S
Zr1009     O1035   2.434       .  S
Zr1009     O1036   2.435       .  S
Zr1009     O1011   2.435       .  S
Zr1009     O1012   2.397       .  S
Zr1009     O1013   2.394   1_554  S
O1010      H1047   0.990       .  S
O1011      H1042   0.990       .  S
O1011      H1056   0.990   1_554  S
O1013      H1039   0.966       .  S
O1014     Zr1024   2.373       .  S
O1015     Zr1024   2.375   1_554  S
O1015      H1040   0.965       .  S
C1016      C1286   1.486       .  S
C1017      C1417   1.490       .  S
C1018      C1237   1.485       .  S
O1019      H1055   0.989       .  S
O1020      C1022   1.288       .  A
O1021      C1022   1.284       .  A
C1022      C1317   1.480       .  S
O1023     Zr1024   2.439       .  S
O1023      H1052   0.990       .  S
Zr1024     O1027   2.438       .  S
Zr1024     O1028   2.437   1_556  S
Zr1024     O1029   2.425       .  S
O1025      C1030   1.284       .  A
O1026      H1043   0.990       .  S
O1026      H1058   0.990       .  S
O1027      H1044   0.990       .  S
O1028      H1048   0.990       .  S
O1028      H1057   0.990       .  S
O1029      C1030   1.283       .  A
C1030      C1217   1.476       .  S
O1031      H1050   0.990   1_556  S
O1031      H1054   0.990       .  S
O1032      H1046   0.990       .  S
O1032      H1053   0.990       .  S
O1033      C1037   1.286       .  A
O1034      C1037   1.286       .  A
O1035      H1045   0.990       .  S
O1036      H1049   0.990       .  S
C1037      C1257   1.491       .  S
C1060      C1061   1.407       .  A
C1060      C1065   1.404       .  A
C1060      C1206   1.487       .  S
C1061      C1062   1.408       .  A
C1061      H1066   1.083       .  S
C1062      C1063   1.406       .  A
C1062      C1366   1.487       .  S
C1063      C1064   1.401       .  A
C1063      H1067   1.083       .  S
C1064      C1065   1.400       .  A
C1064      C1226   1.476       .  S
C1065      H1068   1.083       .  S
C1069      C1070   1.404       .  A
C1069      C1246   1.488       .  S
C1070      H1075   1.083       .  S
C1071      C1072   1.402   1_545  A
C1071      C1186   1.482       .  S
C1072      C1073   1.405       .  A
C1072      H1076   1.084       .  S
C1073      C1074   1.407   1_565  A
C1073      C1506   1.489       .  S
C1074      H1077   1.083       .  S
C1078      C1079   1.406       .  A
C1078      C1083   1.412       .  A
C1078      C1266   1.491       .  S
C1079      C1080   1.400       .  A
C1079      H1084   1.084       .  S
C1080      C1081   1.400       .  A
C1080      C1157   1.476       .  S
C1081      C1082   1.404       .  A
C1082      C1083   1.410       .  A
C1083      H1086   1.083       .  S
Zr1087     O1088   2.437       .  S
Zr1087     O1089   2.429       .  S
Zr1087     O1090   2.429   1_554  S
Zr1087     O1093   2.436       .  S
Zr1087     O1095   2.379   1_554  S
Zr1087     O1096   2.378       .  S
Zr1087     O1097   2.407   1_554  S
Zr1087     O1098   2.400       .  S
O1088      H1144   0.990       .  S
O1088      H1152   0.990       .  S
O1089      C1109   1.284       .  A
O1090      C1111   1.284       .  A
O1091     Zr1101   2.434       .  S
O1091      C1110   1.285       .  A
O1092     Zr1100   2.422       .  S
O1092      C1111   1.283       .  A
O1093      C1110   1.287       .  A
O1094     Zr1102   2.436       .  S
O1095     Zr1100   2.386       .  S
O1096     Zr1101   2.389       .  S
O1096      H1131   0.965       .  S
O1097     Zr1100   2.398       .  S
O1097     Zr1117   2.399   1_455  S
O1097      H1134   0.965       .  S
O1098     Zr1101   2.389       .  S
O1098     Zr1117   2.402   1_454  S
Zr1099     O1124   2.440       .  S
Zr1099     O1118   2.425       .  S
Zr1099     O1126   2.445   1_556  S
Zr1099     O1114   2.439       .  S
Zr1099     O1105   2.401   1_656  S
Zr1099     O1106   2.404   1_655  S
Zr1100     O1119   2.439       .  S
Zr1100     O1107   2.387   1_455  S
Zr1101     O1103   2.435       .  S
Zr1101     O1108   2.383   1_455  S
Zr1102     O1128   2.436       .  S
Zr1102     O1129   2.436       .  S
Zr1102     O1104   2.436       .  S
Zr1102     O1105   2.401       .  S
Zr1102     O1106   2.398   1_554  S
O1103      H1140   0.990       .  S
O1104      H1135   0.990       .  S
O1104      H1149   0.990   1_554  S
O1106      H1132   0.968       .  S
O1107     Zr1117   2.373       .  S
O1108     Zr1117   2.374   1_554  S
O1108      H1133   0.967       .  S
C1109      C1166   1.492       .  S
C1110      C1446   1.492       .  S
C1111      C1197   1.475       .  S
O1112      H1148   0.990       .  S
O1113      C1115   1.284   1_455  A
O1114      C1115   1.287       .  A
C1115      C1606   1.489       .  S
O1116     Zr1117   2.440       .  S
O1116      H1145   0.990       .  S
Zr1117     O1120   2.438       .  S
Zr1117     O1121   2.439   1_556  S
Zr1117     O1122   2.434       .  S
O1119      H1136   0.990       .  S
O1119      H1151   0.990       .  S
O1120      H1137   0.990       .  S
O1121      H1141   0.990       .  S
O1121      H1150   0.990       .  S
O1122      C1123   1.285       .  A
C1123      C1177   1.482       .  S
O1124      H1143   0.990   1_656  S
O1124      H1147   0.990       .  S
O1125      H1139   0.990       .  S
O1125      H1146   0.991       .  S
O1126      C1130   1.288       .  A
O1127      C1130   1.283       .  A
O1128      H1138   0.990       .  S
O1129      H1142   0.990       .  S
C1130      C1297   1.487       .  S
C1153      C1154   1.405       .  A
C1153      C1158   1.400       .  A
C1153      H1163   1.083       .  S
C1154      C1159   1.483       .  S
C1155      F1160   1.357       .  S
C1156      C1157   1.403       .  A
C1157      C1158   1.404       .  A
C1158      F1162   1.358       .  S
C1159      C1164   1.404       .  A
C1159      C1168   1.403   1_565  A
C1164      C1165   1.399       .  A
C1164      F1169   1.358       .  S
C1165      C1166   1.410       .  A
C1165      H1170   1.083       .  S
C1166      C1167   1.412   1_565  A
C1167      C1168   1.401       .  A
C1167      F1171   1.357       .  S
C1168      H1172   1.083       .  S
C1173      C1174   1.404       .  A
C1173      C1178   1.399       .  A
C1173      H1183   1.083       .  S
C1174      C1179   1.480   1_565  S
C1175      F1180   1.357       .  S
C1176      C1177   1.407   1_545  A
C1177      C1178   1.409       .  A
C1178      F1182   1.358       .  S
C1179      C1188   1.403   1_545  A
C1184      C1185   1.399       .  A
C1184      F1189   1.357       .  S
C1185      H1190   1.083       .  S
C1186      C1187   1.407   1_545  A
C1187      C1188   1.397       .  A
C1187      F1191   1.357       .  S
C1188      H1192   1.083       .  S
C1193      C1194   1.403       .  A
C1193      C1198   1.397       .  A
C1193      H1203   1.083       .  S
C1194      C1195   1.406       .  A
C1194      C1199   1.478       .  S
C1195      C1196   1.396       .  A
C1195      F1200   1.357       .  S
C1196      C1197   1.405       .  A
C1196      H1201   1.083       .  S
C1197      C1198   1.408       .  A
C1198      F1202   1.358       .  S
C1199      C1204   1.406       .  A
C1199      C1208   1.401       .  A
C1204      C1205   1.400       .  A
C1204      F1209   1.358       .  S
C1205      C1206   1.407       .  A
C1205      H1210   1.083       .  S
C1206      C1207   1.410       .  A
C1207      C1208   1.395       .  A
C1207      F1211   1.357       .  S
C1208      H1212   1.083       .  S
C1213      C1214   1.405       .  A
C1213      C1218   1.396       .  A
C1213      H1223   1.083       .  S
C1214      C1215   1.407       .  A
C1214      C1219   1.483       .  S
C1215      C1216   1.397       .  A
C1215      F1220   1.357       .  S
C1216      C1217   1.404       .  A
C1216      H1221   1.083       .  S
C1217      C1218   1.407       .  A
C1218      F1222   1.358       .  S
C1219      C1224   1.409       .  A
C1219      C1228   1.405       .  A
C1224      C1225   1.399       .  A
C1224      F1229   1.357       .  S
C1225      C1226   1.402       .  A
C1225      H1230   1.083       .  S
C1226      C1227   1.404       .  A
C1227      C1228   1.395       .  A
C1227      F1231   1.358       .  S
C1228      H1232   1.083       .  S
C1233      C1234   1.403       .  A
C1233      C1238   1.399       .  A
C1233      H1243   1.083       .  S
C1234      C1235   1.404       .  A
C1234      C1239   1.480       .  S
C1235      C1236   1.396       .  A
C1235      F1240   1.357       .  S
C1236      C1237   1.406       .  A
C1236      H1241   1.083       .  S
C1237      C1238   1.412       .  A
C1238      F1242   1.357       .  S
C1239      C1244   1.405       .  A
C1239      C1248   1.403       .  A
C1244      C1245   1.399       .  A
C1244      F1249   1.358       .  S
C1245      C1246   1.407       .  A
C1245      H1250   1.083       .  S
C1246      C1247   1.409       .  A
C1247      C1248   1.399       .  A
C1248      H1252   1.083       .  S
C1253      C1254   1.404       .  A
C1253      C1258   1.402       .  A
C1253      H1263   1.083       .  S
C1254      C1255   1.403       .  A
C1254      C1259   1.483       .  S
C1255      C1256   1.399       .  A
C1255      F1260   1.357       .  S
C1256      C1257   1.409       .  A
C1256      H1261   1.083       .  S
C1257      C1258   1.412       .  A
C1258      F1262   1.357       .  S
C1259      C1264   1.405       .  A
C1259      C1268   1.403       .  A
C1264      C1265   1.401       .  A
C1264      F1269   1.357       .  S
C1265      C1266   1.407       .  A
C1265      H1270   1.083       .  S
C1266      C1267   1.412       .  A
C1267      C1268   1.400       .  A
C1267      F1271   1.358       .  S
C1268      H1272   1.083       .  S
C1273      C1274   1.407       .  A
C1273      C1278   1.400       .  A
C1273      H1283   1.083       .  S
C1274      C1275   1.408       .  A
C1274      C1279   1.485       .  S
C1275      C1276   1.397       .  A
C1275      F1280   1.357       .  S
C1276      C1277   1.400       .  A
C1276      H1281   1.083       .  S
C1277      C1278   1.403       .  A
C1278      F1282   1.357       .  S
C1279      C1284   1.406       .  A
C1279      C1288   1.404       .  A
C1284      C1285   1.398       .  A
C1284      F1289   1.357       .  S
C1285      C1286   1.407       .  A
C1285      H1290   1.083       .  S
C1286      C1287   1.412       .  A
C1287      C1288   1.398       .  A
C1287      F1291   1.358       .  S
C1288      H1292   1.083       .  S
C1293      C1294   1.402       .  A
C1293      C1298   1.398       .  A
C1293      H1303   1.083       .  S
C1294      C1295   1.407       .  A
C1294      C1299   1.485       .  S
C1295      C1296   1.402       .  A
C1295      F1300   1.357       .  S
C1296      C1297   1.406       .  A
C1296      H1301   1.083       .  S
C1297      C1298   1.412       .  A
C1298      F1302   1.358       .  S
C1299      C1304   1.406       .  A
C1299      C1308   1.404       .  A
C1304      C1305   1.399       .  A
C1304      F1309   1.358       .  S
C1305      C1306   1.408       .  A
C1305      H1310   1.083       .  S
C1306      C1307   1.409       .  A
C1307      C1308   1.400       .  A
C1307      F1311   1.357       .  S
C1308      H1312   1.083       .  S
C1313      C1314   1.407       .  A
C1313      C1318   1.399       .  A
C1313      H1323   1.082       .  S
C1314      C1315   1.410       .  A
C1314      C1319   1.492       .  S
C1315      C1316   1.397       .  A
C1315      F1320   1.357       .  S
C1316      C1317   1.403       .  A
C1316      H1321   1.083       .  S
C1317      C1318   1.408       .  A
C1318      F1322   1.358       .  S
C1319      C1324   1.410       .  A
C1319      C1328   1.406       .  A
C1324      C1325   1.399       .  A
C1324      F1329   1.357       .  S
C1325      C1326   1.405       .  A
C1325      H1330   1.083       .  S
C1326      C1327   1.408       .  A
C1327      C1328   1.396       .  A
C1327      F1331   1.357       .  S
C1328      H1332   1.082       .  S
C1333      C1334   1.403   1_565  A
C1333      C1338   1.398       .  A
C1333      H1343   1.083       .  S
C1334      C1339   1.476       .  S
C1335      C1336   1.396       .  A
C1335      F1340   1.357       .  S
C1336      H1341   1.083       .  S
C1337      C1338   1.408       .  A
C1338      F1342   1.358       .  S
C1339      C1344   1.404       .  A
C1344      C1345   1.398       .  A
C1344      F1349   1.357       .  S
C1345      C1346   1.407       .  A
C1345      H1350   1.083       .  S
C1347      C1348   1.396       .  A
C1347      F1351   1.357       .  S
C1348      H1352   1.084       .  S
C1353      C1354   1.406       .  A
C1353      C1358   1.399       .  A
C1353      H1363   1.083       .  S
C1354      C1355   1.409       .  A
C1354      C1359   1.486       .  S
C1355      C1356   1.395       .  A
C1355      F1360   1.357       .  S
C1356      C1357   1.403       .  A
C1356      H1361   1.083       .  S
C1357      C1358   1.408       .  A
C1358      F1362   1.358       .  S
C1359      C1364   1.408       .  A
C1359      C1368   1.405       .  A
C1364      C1365   1.399       .  A
C1364      F1369   1.358       .  S
C1365      C1366   1.407       .  A
C1365      H1370   1.083       .  S
C1366      C1367   1.408       .  A
C1367      C1368   1.396       .  A
C1367      F1371   1.357       .  S
C1368      H1372   1.083       .  S
C1373      C1374   1.405       .  A
C1373      C1378   1.399       .  A
C1373      H1383   1.083       .  S
C1374      C1375   1.407       .  A
C1374      C1379   1.487       .  S
C1375      C1376   1.398       .  A
C1375      F1380   1.357       .  S
C1376      C1377   1.407       .  A
C1376      H1381   1.083       .  S
C1377      C1378   1.408       .  A
C1378      F1382   1.358       .  S
C1379      C1384   1.407       .  A
C1379      C1388   1.406       .  A
C1384      C1385   1.398       .  A
C1384      F1389   1.358       .  S
C1385      C1386   1.407       .  A
C1385      H1390   1.083       .  S
C1386      C1387   1.408       .  A
C1387      C1388   1.401       .  A
C1387      F1391   1.357       .  S
C1388      H1392   1.083       .  S
C1393      H1403   1.083       .  S
C1394      C1395   1.407       .  A
C1394      C1399   1.488       .  S
C1395      C1396   1.399       .  A
C1395      F1400   1.357       .  S
C1396      C1397   1.405       .  A
C1396      H1401   1.083       .  S
C1397      C1398   1.407       .  A
C1399      C1404   1.406   1_565  A
C1399      C1408   1.407       .  A
C1404      C1405   1.396       .  A
C1404      F1409   1.357       .  S
C1405      C1406   1.407   1_545  A
C1405      H1410   1.083       .  S
C1406      C1407   1.409       .  A
C1407      C1408   1.402       .  A
C1407      F1411   1.358       .  S
C1408      H1412   1.083       .  S
C1413      C1414   1.403       .  A
C1413      C1418   1.397       .  A
C1413      H1423   1.083       .  S
C1414      C1415   1.406       .  A
C1414      C1419   1.485       .  S
C1415      C1416   1.403       .  A
C1415      F1420   1.358       .  S
C1416      C1417   1.410       .  A
C1416      H1421   1.083       .  S
C1417      C1418   1.410       .  A
C1418      F1422   1.357       .  S
C1419      C1424   1.407       .  A
C1419      C1428   1.406       .  A
C1424      C1425   1.396       .  A
C1424      F1429   1.357       .  S
C1425      C1426   1.402       .  A
C1425      H1430   1.083       .  S
C1427      F1431   1.358       .  S
C1428      H1432   1.083       .  S
C1433      C1434   1.407       .  A
C1433      C1438   1.401       .  A
C1433      H1443   1.083       .  S
C1434      C1435   1.409       .  A
C1434      C1439   1.489       .  S
C1435      C1436   1.400       .  A
C1435      F1440   1.357       .  S
C1436      C1437   1.401       .  A
C1436      H1441   1.083       .  S
C1437      C1438   1.404       .  A
C1438      F1442   1.357       .  S
C1439      C1444   1.407       .  A
C1439      C1448   1.405       .  A
C1444      C1445   1.401       .  A
C1444      F1449   1.357       .  S
C1445      C1446   1.408       .  A
C1445      H1450   1.083       .  S
C1446      C1447   1.412       .  A
C1447      C1448   1.400       .  A
C1447      F1451   1.358       .  S
C1448      H1452   1.083       .  S
C1453      C1454   1.402       .  A
C1453      C1458   1.395       .  A
C1453      H1463   1.084       .  S
C1454      C1455   1.405       .  A
C1454      C1459   1.479       .  S
C1455      C1456   1.398       .  A
C1455      F1460   1.357       .  S
C1456      C1457   1.406       .  A
C1456      H1461   1.083       .  S
C1457      C1458   1.412       .  A
C1458      F1462   1.358       .  S
C1459      C1464   1.405       .  A
C1459      C1468   1.404       .  A
C1464      C1465   1.395       .  A
C1464      F1469   1.358       .  S
C1465      C1466   1.405       .  A
C1465      H1470   1.083       .  S
C1466      C1467   1.407       .  A
C1467      C1468   1.399       .  A
C1467      F1471   1.357       .  S
C1468      H1472   1.083       .  S
C1473      C1474   1.404       .  A
C1473      C1478   1.401       .  A
C1473      H1483   1.083       .  S
C1474      C1475   1.404       .  A
C1474      C1479   1.478       .  S
C1475      C1476   1.395       .  A
C1475      F1480   1.358       .  S
C1476      C1477   1.405       .  A
C1476      H1481   1.083       .  S
C1477      C1478   1.408       .  A
C1478      F1482   1.357       .  S
C1479      C1484   1.405       .  A
C1479      C1488   1.400       .  A
C1484      C1485   1.400       .  A
C1484      F1489   1.357       .  S
C1485      C1486   1.409       .  A
C1485      H1490   1.083       .  S
C1486      C1487   1.412       .  A
C1487      C1488   1.395       .  A
C1487      F1491   1.358       .  S
C1488      H1492   1.084       .  S
C1493      C1494   1.403       .  A
C1493      C1498   1.395       .  A
C1493      H1503   1.083       .  S
C1494      C1495   1.410       .  A
C1494      C1499   1.487       .  S
C1495      C1496   1.401       .  A
C1495      F1500   1.357       .  S
C1496      C1497   1.405       .  A
C1496      H1501   1.083       .  S
C1497      C1498   1.410       .  A
C1498      F1502   1.357       .  S
C1499      C1504   1.408       .  A
C1499      C1508   1.405       .  A
C1504      C1505   1.397       .  A
C1504      F1509   1.358       .  S
C1505      C1506   1.406       .  A
C1505      H1510   1.083       .  S
C1506      C1507   1.410       .  A
C1507      C1508   1.399       .  A
C1507      F1511   1.357       .  S
C1508      H1512   1.083       .  S
C1513      C1514   1.404       .  A
C1513      C1518   1.399       .  A
C1513      H1523   1.083       .  S
C1514      C1515   1.409       .  A
C1514      C1519   1.488       .  S
C1515      C1516   1.401       .  A
C1515      F1520   1.358       .  S
C1516      C1517   1.407       .  A
C1516      H1521   1.083       .  S
C1517      C1518   1.410       .  A
C1518      F1522   1.357       .  S
C1519      C1524   1.408       .  A
C1519      C1528   1.403       .  A
C1524      F1529   1.357       .  S
C1525      H1530   1.083       .  S
C1526      C1527   1.411       .  A
C1527      C1528   1.398       .  A
C1527      F1531   1.357       .  S
C1528      H1532   1.083       .  S
C1533      C1534   1.404       .  A
C1533      C1538   1.398       .  A
C1533      H1543   1.083       .  S
C1534      C1535   1.407       .  A
C1534      C1539   1.482       .  S
C1535      C1536   1.398       .  A
C1535      F1540   1.358       .  S
C1536      C1537   1.406       .  A
C1536      H1541   1.083       .  S
C1537      C1538   1.407       .  A
C1538      F1542   1.357       .  S
C1539      C1544   1.406       .  A
C1539      C1548   1.403       .  A
C1544      C1545   1.398       .  A
C1544      F1549   1.357       .  S
C1545      C1546   1.406       .  A
C1545      H1550   1.083       .  S
C1546      C1547   1.409       .  A
C1547      C1548   1.398       .  A
C1547      F1551   1.358       .  S
C1548      H1552   1.083       .  S
C1553      C1554   1.403       .  A
C1553      C1558   1.397       .  A
C1553      H1563   1.083       .  S
C1554      C1555   1.406       .  A
C1554      C1559   1.480       .  S
C1555      C1556   1.401       .  A
C1555      F1560   1.358       .  S
C1556      C1557   1.406       .  A
C1556      H1561   1.083       .  S
C1557      C1558   1.406       .  A
C1558      F1562   1.357       .  S
C1559      C1564   1.405       .  A
C1559      C1568   1.402       .  A
C1564      C1565   1.397       .  A
C1564      F1569   1.357       .  S
C1565      C1566   1.406       .  A
C1565      H1570   1.083       .  S
C1566      C1567   1.412       .  A
C1567      C1568   1.398       .  A
C1567      F1571   1.358       .  S
C1568      H1572   1.083       .  S
C1573      C1574   1.405       .  A
C1573      C1578   1.401       .  A
C1573      H1583   1.083       .  S
C1574      C1575   1.407       .  A
C1574      C1579   1.486       .  S
C1575      C1576   1.395       .  A
C1575      F1580   1.358       .  S
C1576      C1577   1.405       .  A
C1576      H1581   1.083       .  S
C1577      C1578   1.411       .  A
C1578      F1582   1.357       .  S
C1579      C1584   1.408       .  A
C1579      C1588   1.404       .  A
C1584      C1585   1.400       .  A
C1584      F1589   1.357       .  S
C1585      C1586   1.407       .  A
C1585      H1590   1.083       .  S
C1586      C1587   1.407       .  A
C1587      C1588   1.394       .  A
C1587      F1591   1.358       .  S
C1588      H1592   1.083       .  S
C1593      C1594   1.402       .  A
C1593      C1598   1.398       .  A
C1593      H1603   1.083       .  S
C1594      C1595   1.403       .  A
C1594      C1599   1.472       .  S
C1595      C1596   1.396       .  A
C1595      F1600   1.357       .  S
C1596      C1597   1.404       .  A
C1596      H1601   1.083       .  S
C1597      C1598   1.406       .  A
C1598      F1602   1.358       .  S
C1599      C1604   1.401       .  A
C1599      C1608   1.400       .  A
C1604      C1605   1.396       .  A
C1604      F1609   1.357       .  S
C1605      C1606   1.409       .  A
C1605      H1610   1.083       .  S
C1606      C1607   1.415       .  A
C1607      C1608   1.399       .  A
C1607      F1611   1.358       .  S
C1608      H1612   1.084       .  S
C1613      C1614   1.400       .  A
C1613      C1618   1.396       .  A
C1613      H1623   1.084       .  S
C1614      C1615   1.402       .  A
C1614      C1619   1.472       .  S
C1615      C1616   1.396       .  A
C1615      F1620   1.357       .  S
C1616      C1617   1.407       .  A
C1616      H1621   1.083       .  S
C1617      C1618   1.413       .  A
C1618      F1622   1.357       .  S
C1619      C1624   1.404       .  A
C1619      C1628   1.402       .  A
C1624      C1625   1.396       .  A
C1624      F1629   1.358       .  S
C1625      C1626   1.404       .  A
C1625      H1630   1.083       .  S
C1626      C1627   1.408       .  A
C1627      C1628   1.398       .  A
C1627      F1631   1.357       .  S
C1628      H1632   1.083       .  S
