geometry optimzed in LAMMPS
_audit_creation_date              2020-11-30 
_audit_creation_method            'lammps2cif' 
_symmetry_space_group_name_H-M    'P1' 
_symmetry_Int_Tables_number       1 
_symmetry_cell_setting            triclinic 
loop_ 
_symmetry_equiv_pos_as_xyz 
  x,y,z 
_cell_length_a                    49.36363712 
_cell_length_b                    49.71017910162027 
_cell_length_c                    62.146017698833845 
_cell_angle_alpha                 90.28644059328072 
_cell_angle_beta                  89.76524105838895 
_cell_angle_gamma                 119.83785942024944 
loop_ 
_atom_site_label 
_atom_site_type_symbol 
_atom_site_fract_x 
_atom_site_fract_y 
_atom_site_fract_z 
_atom_site_charge 
O1          O  0.02817012  0.13479007  0.32936180    -0.88700
C2          C  0.09449620  0.19286294  0.28668823     0.87300
Mg3        Mg  0.02166740  0.14854576  0.36069416     1.58100
O4          O  0.11031351  0.13910698  0.31310395    -0.88400
O5          O  0.03524467  0.09914452  0.31426088    -0.75700
C6          C  0.16042877  0.22096628  0.40532796     0.92400
O7          O  0.05577653  0.20814078  0.32324805    -0.75600
O8          O  0.13414086  0.21974665  0.40523028    -0.83100
Mg9        Mg  0.03078023  0.16379832  0.30283887     1.58000
C10         C  0.19999511  0.17314899  0.33717872     0.92300
O11         O  0.00336877  0.12278603  0.27929129    -0.81300
H12         H  0.09987522  0.09571076  0.31989524    -0.06700
C13         C  0.15193753  0.22619612  0.34065795     0.87300
O14         O  0.04987998  0.12882786  0.37651910    -0.75800
O15         O  0.07457038  0.16747383  0.29376205    -0.88600
O16         O  0.18599451  0.17074785  0.31958667    -0.81400
C17         C  0.13969646  0.15144456  0.25952519     0.92400
C18         C  0.01201111  0.11230033  0.26351615     0.92300
Mg19       Mg  0.14306420  0.17075840  0.36509048     1.58000
O20         O  0.16962318  0.21249701  0.38873204    -0.81300
O21         O  0.11911761  0.12600168  0.34476582    -0.75600
O22         O  0.11028880  0.13851251  0.26217973    -0.81400
O23         O  0.48495532  0.16085069  0.31257584    -0.83100
O24         O  0.06209691  0.19205736  0.40551503    -0.81400
C25         C  0.10958617  0.11937382  0.32547208     0.86700
O26         O  0.09856285  0.16535744  0.37396986    -0.88600
O27         O  0.14473224  0.19879809  0.33829398    -0.88700
O28         O  0.13773756  0.23406806  0.35411437    -0.75700
Mg29       Mg  0.07418218  0.12420476  0.28930955     1.58000
O30         O  0.15832548  0.16869075  0.27406841    -0.83100
H31         H  0.00208961  0.08997406  0.33693741    -0.06800
O32         O  0.06285382  0.19384341  0.35498849    -0.88400
H33         H  0.07484662  0.23772161  0.34846611    -0.06700
H34         H  0.08587257  0.12558813  0.38933544    -0.06900
C35         C  0.06459286  0.21410623  0.34270012     0.86700
C36         C  0.02077376  0.10731893  0.32721457     0.87300
C37         C  0.07860672  0.13962766  0.38055782     0.87300
H38         H  0.17040832  0.24375207  0.33091759    -0.06800
O39         O  0.12322386  0.20375518  0.29068341    -0.75900
Mg40       Mg  0.09851615  0.20815282  0.37898224     1.58000
H41         H  0.08718539  0.20660066  0.27756393    -0.06800
C42         C  0.47407918  0.16228994  0.33087840     0.92300
O43         O  0.01387695  0.16318895  0.39331301    -0.83100
C44         C  0.03272334  0.17971477  0.40793084     0.92400
O45         O  0.03770547  0.11217483  0.26383556    -0.83100
Mg46       Mg  0.15122585  0.18424162  0.30690684     1.58200
O47         O  0.98693475  0.16199267  0.34840927    -0.81400
O48         O  0.18966264  0.17604878  0.35530649    -0.83100
C49         C  0.18012907  0.10596291  0.18657792     0.01900
C50         C  0.18035046  0.07741327  0.18814695     0.01900
C51         C  0.19114123  0.06737647  0.17061058    -0.18600
C52         C  0.20169810  0.08479668  0.15176202     0.01900
C53         C  0.20042558  0.11247698  0.14997983     0.01900
C54         C  0.19037848  0.12308168  0.16744770    -0.18600
H55         H  0.19025746  0.14475388  0.16604365     0.04000
H56         H  0.19129833  0.04568824  0.17162868     0.04000
C57         C  0.44892587  0.07876327  0.18122117     0.01900
C58         C  0.42186569  0.04913297  0.17996551     0.01900
C59         C  0.40528086  0.03960720  0.16052804    -0.18600
C60         C  0.41370949  0.05971410  0.14266250     0.01900
C61         C  0.44102774  0.08974090  0.14407187     0.01900
C62         C  0.45827349  0.09837506  0.16331124    -0.18600
H63         H  0.47885257  0.12115604  0.16460395     0.04000
H64         H  0.38461842  0.01684510  0.15966361     0.04000
O65         O  0.14510812  0.44910895  0.33660651    -0.88700
C66         C  0.07565079  0.42666570  0.38019113     0.87300
Mg67       Mg  0.14957161  0.47559371  0.30844434     1.58100
O68         O  0.06877845  0.36379477  0.34951685    -0.88400
O69         O  0.14281315  0.40636272  0.34799621    -0.75700
C70         C  0.01148064  0.39599393  0.26060632     0.92400
O71         O  0.10999838  0.48689280  0.34879096    -0.75600
O72         O  0.03512307  0.42331489  0.26137790    -0.83100
Mg73       Mg  0.13932549  0.46847792  0.36582004     1.58000
C74         C  0.48069553  0.30424449  0.32129920     0.92300
O75         O  0.17094720  0.45421897  0.38339730    -0.81300
H76         H  0.08582615  0.33685201  0.33954235    -0.06700
C77         C  0.01788229  0.40340684  0.32617311     0.87300
O78         O  0.12789456  0.43096505  0.28774918    -0.75800
O79         O  0.09769847  0.42546352  0.37178875    -0.88600
O80         O  0.99322302  0.31462926  0.33960747    -0.81400
C81         C  0.04026263  0.34089891  0.40309435     0.92400
C82         C  0.16479286  0.43731426  0.39994795     0.92300
Mg83       Mg  0.03583815  0.36546517  0.29786806     1.58000
O84         O  0.00510972  0.37724878  0.27622871    -0.81300
O85         O  0.06430532  0.34770970  0.31616787    -0.75600
O86         O  0.06817064  0.36331277  0.40140614    -0.81400
O87         O  0.18362299  0.01392483  0.36078408    -0.83100
O88         O  0.10813630  0.47351323  0.26306482    -0.81400
C89         C  0.07324379  0.34875059  0.33545568     0.86700
O90         O  0.07743681  0.40941463  0.29181833    -0.88600
O91         O  0.02864064  0.38566888  0.32683684    -0.88700
O92         O  0.02974049  0.42713760  0.31406263    -0.75700
Mg93       Mg  0.10411139  0.38623922  0.37408761     1.58000
O94         O  0.02069210  0.33411090  0.38778997    -0.83100
H95         H  0.17342560  0.43433433  0.32521299    -0.06800
O96         O  0.10432654  0.47080619  0.31527118    -0.88400
H97         H  0.08667745  0.49687331  0.32616264    -0.06700
H98         H  0.09675887  0.39101618  0.27273183    -0.06900
C99         C  0.09983024  0.48539007  0.32973328     0.86700
C100        C  0.15470784  0.43037759  0.33612465     0.87300
C101        C  0.10029095  0.40957678  0.28356687     0.87300
H102        H  0.99814430  0.39880838  0.33624668    -0.06800
O103        O  0.04762032  0.40628066  0.37621960    -0.75900
Mg104      Mg  0.07018662  0.44834531  0.28932409     1.58000
H105        H  0.08030835  0.44582031  0.39077910    -0.06800
C106        C  0.19320182  0.03115055  0.34439110     0.92300
O107        O  0.15365800  0.50357595  0.27906652    -0.83100
C108        C  0.13579721  0.49677935  0.26288494     0.92400
O109        O  0.14036834  0.41073629  0.40076622    -0.83100
Mg110      Mg  0.02443906  0.36100381  0.35658671     1.58200
O111        O  0.17950756  0.02244601  0.32622883    -0.81400
O112        O  0.49163543  0.31936109  0.30399073    -0.83100
O113        O  0.30929595  0.35997257  0.34469626    -0.88700
C114        C  0.36417872  0.43407372  0.38276939     0.87300
Mg115      Mg  0.32616024  0.35224605  0.31515530     1.58100
O116        O  0.30533519  0.44081169  0.35521526    -0.88400
O117        O  0.27169978  0.36657741  0.35760509    -0.75700
C118        C  0.38722894  0.48524585  0.26279488     0.92400
O119        O  0.38354126  0.39198931  0.35249327    -0.75600
O120        O  0.39158904  0.46255361  0.26636333    -0.83100
Mg121      Mg  0.33792776  0.36742793  0.37212482     1.58000
C122        C  0.33044374  0.02534307  0.32359115     0.92300
O123        O  0.29422614  0.34096224  0.39323922    -0.81300
H124        H  0.26036023  0.42533229  0.34860526    -0.06700
C125        C  0.39236574  0.48635842  0.32780981     0.87300
O126        O  0.30247547  0.37458141  0.29640774    -0.75800
O127        O  0.33930141  0.41151898  0.37693118    -0.88600
O128        O  0.33067421  0.51497083  0.34221153    -0.81400
C129        C  0.31936245  0.47583817  0.40757229     0.92400
C130        C  0.28684679  0.35097832  0.40981284     0.92300
Mg131      Mg  0.33330585  0.46708319  0.30166240     1.58000
O132        O  0.37201244  0.49192721  0.27629234    -0.81300
O133        O  0.28936790  0.44285057  0.32287835    -0.75600
O134        O  0.30920645  0.44683681  0.40599812    -0.81400
O135        O  0.33722894  0.32103588  0.36673176    -0.83100
O136        O  0.36649925  0.39156397  0.27034215    -0.81400
C137        C  0.28408100  0.43613003  0.34268751     0.86700
O138        O  0.33439033  0.42465788  0.29747290    -0.88600
O139        O  0.36414293  0.47726388  0.32888007    -0.88700
O140        O  0.40270231  0.47145481  0.31728979    -0.75700
Mg141      Mg  0.29452022  0.40820151  0.38103745     1.58000
O142        O  0.33238198  0.49387459  0.39168409    -0.83100
H143        H  0.26457026  0.33218888  0.33663682    -0.06800
O144        O  0.36853085  0.39665867  0.32034399    -0.88400
H145        H  0.41323518  0.41093727  0.32721127    -0.06700
H146        H  0.29429388  0.40577685  0.28109044    -0.06900
C147        C  0.38942037  0.40018081  0.33290626     0.86700
C148        C  0.28127405  0.35190008  0.34594022     0.87300
C149        C  0.31001075  0.40203632  0.29103550     0.87300
H150        H  0.40851881  0.50685053  0.33669535    -0.06800
O151        O  0.37165798  0.46157003  0.37743445    -0.75900
Mg152      Mg  0.38044868  0.42963982  0.29460289     1.58000
H153        H  0.38025281  0.43027124  0.39227062    -0.06800
C154        C  0.34326079  0.31072899  0.34966066     0.92300
O155        O  0.34256311  0.34368024  0.28321623    -0.83100
C156        C  0.35580726  0.36268299  0.26793530     0.92400
O157        O  0.28636308  0.37624652  0.40917720    -0.83100
Mg158      Mg  0.34827670  0.48491090  0.35910435     1.58200
O159        O  0.34538226  0.32317855  0.33137288    -0.81400
O160        O  0.33339903  0.01283894  0.30649744    -0.83100
C161        C  0.42960270  0.34587770  0.18522270     0.01900
C162        C  0.39847860  0.34021961  0.18731911     0.01900
C163        C  0.37841726  0.32948809  0.16967892    -0.18600
C164        C  0.38754800  0.32330800  0.14991413     0.01900
C165        C  0.41733048  0.32559366  0.14794676     0.01900
C166        C  0.43827575  0.33772832  0.16552718    -0.18600
H167        H  0.46143120  0.34064334  0.16389900     0.04000
H168        H  0.35518446  0.32645667  0.17127118     0.04000
O169        O  0.21976342  0.02784516  0.00726798    -0.88700
C170        C  0.24353017  0.47842258  0.04782867     0.87300
Mg171      Mg  0.18972510  0.00604801  0.98002428     1.58100
O172        O  0.30578449  0.03193234  0.01483241    -0.88400
O173        O  0.26547991  0.06614509  0.01694367    -0.75700
C174        C  0.25943634  0.44206582  0.92913563     0.92400
O175        O  0.17909268  0.45602591  0.01998035    -0.75600
O176        O  0.23360298  0.44173851  0.93025841    -0.83100
Mg177      Mg  0.20256268  0.50411602  0.03692216     1.58000
C178        C  0.36005879  0.00031897  0.98340104     0.92300
O179        O  0.22252997  0.04984132  0.05575929    -0.81300
H180        H  0.33535412  0.07510856  0.00492735    -0.06700
C181        C  0.25847360  0.44213910  0.99331507     0.87300
O182        O  0.23340925  0.02734226  0.95780689    -0.75800
O183        O  0.24552319  0.50227354  0.04029575    -0.88600
O184        O  0.35244916  0.00554579  0.00194982    -0.81400
C185        C  0.33319189  0.02374500  0.06680223     0.92400
C186        C  0.24154156  0.05797125  0.07140497     0.92300
Mg187      Mg  0.29661587  0.99516541  0.96402196     1.58000
O188        O  0.27712175  0.44939112  0.94542558    -0.81300
O189        O  0.32051766  0.04256822  0.98122267    -0.75600
O190        O  0.31527798  0.03530123  0.06546362    -0.81400
O191        O  0.15759213  0.50702678  0.03346144    -0.83100
O192        O  0.18796824  0.46724804  0.93414952    -0.81400
C193        C  0.32130557  0.05085254  0.00070025     0.86700
O194        O  0.25365823  0.99720124  0.96101621    -0.88600
O195        O  0.27813026  0.47008617  0.99317055    -0.88700
O196        O  0.23330862  0.43138691  0.98253910    -0.75700
Mg197      Mg  0.28762858  0.04678462  0.04079826     1.58000
O198        O  0.33519157  0.00792574  0.05139109    -0.83100
H199        H  0.23629841  0.07105178  0.99638744    -0.06800
O200        O  0.19335556  0.46536009  0.98616599    -0.88400
H201        H  0.16526490  0.42235916  0.99706704    -0.06700
H202        H  0.27259389  0.03451310  0.94194229    -0.06900
C203        C  0.17865248  0.44685593  0.00073159     0.86700
C204        C  0.24008368  0.05553455  0.00642047     0.87300
C205        C  0.25417727  0.02020557  0.95309412     0.87300
H206        H  0.26262872  0.42654853  0.00297378    -0.06800
O207        O  0.26246258  0.46931038  0.04235987    -0.75900
Mg208      Mg  0.21235786  0.45236220  0.95925332     1.58000
H209        H  0.22482503  0.46463295  0.05894752    -0.06800
C210        C  0.13809333  0.49666543  0.01807665     0.92300
O211        O  0.15780860  0.48191681  0.95098213    -0.83100
C212        C  0.16400974  0.47061884  0.93451991     0.92400
O213        O  0.26757471  0.05889621  0.06944917    -0.83100
Mg214      Mg  0.30643864  0.48935291  0.02103989     1.58200
O215        O  0.14437910  0.48785122  0.00035829    -0.81400
O216        O  0.34164386  0.99262959  0.96745762    -0.83100
O217        O  0.27470793  0.30865095  0.99636396    -0.88700
C218        C  0.27134750  0.24379088  0.95423502     0.87300
Mg219      Mg  0.29357595  0.31298674  0.02775924     1.58100
O220        O  0.20001482  0.22518953  0.97957211    -0.88400
O221        O  0.23094795  0.29920130  0.98159993    -0.75700
C222        C  0.23433974  0.17295967  0.06761322     0.92400
O223        O  0.32496978  0.28588361  0.98997616    -0.75600
O224        O  0.25922302  0.19881778  0.06635786    -0.83100
Mg225      Mg  0.30266882  0.30844722  0.97001795     1.58000
C226        C  0.14269989  0.13550864  0.00072680     0.92300
O227        O  0.28645612  0.33384227  0.94616545    -0.81300
H228        H  0.16478986  0.23323756  0.98538007    -0.06700
C229        C  0.24659689  0.18468725  0.00414649     0.87300
O230        O  0.24469545  0.28228118  0.04198896    -0.75800
O231        O  0.26468988  0.26328505  0.96089610    -0.88600
O232        O  0.15479489  0.15135691  0.98384141    -0.81400
C233        C  0.18734588  0.19842962  0.92533056     0.92400
C234        C  0.26775483  0.32349347  0.93020194     0.92300
Mg235      Mg  0.19681102  0.18967988  0.02976127     1.58000
O236        O  0.21302100  0.16473300  0.05342220    -0.81300
O237        O  0.17472631  0.21289865  0.01003656    -0.75600
O238        O  0.20341828  0.22725128  0.92908783    -0.81400
O239        O  0.34270881  0.35515273  0.98122103    -0.83100
O240        O  0.29576848  0.26981961  0.07092116    -0.81400
C241        C  0.17917411  0.22406866  0.99120607     0.86700
O242        O  0.23483882  0.23425447  0.03903963    -0.88600
O243        O  0.22444011  0.18953352  0.00318375    -0.88700
O244        O  0.26963400  0.20053113  0.01639684    -0.75700
Mg245      Mg  0.22053552  0.26145432  0.95641737     1.58000
O246        O  0.18374830  0.17876913  0.93949022    -0.83100
H247        H  0.25317673  0.33229382  0.00443321    -0.06800
O248        O  0.29928369  0.27372005  0.02028034    -0.88400
H249        H  0.33529326  0.26667216  0.01513332    -0.06700
H250        H  0.20552078  0.24526881  0.05368183    -0.06900
C251        C  0.32058200  0.27527538  0.00894868     0.86700
C252        C  0.25329793  0.31445281  0.99449680     0.87300
C253        C  0.22760127  0.25342631  0.04549691     0.87300
H254        H  0.24692674  0.16740442  0.99370467    -0.06800
O255        O  0.25351000  0.21493624  0.95742842    -0.75900
Mg256      Mg  0.27970340  0.23671900  0.04257769     1.58000
H257        H  0.29329953  0.25155323  0.94597259    -0.06800
C258        C  0.35597537  0.36276084  0.99958913     0.92300
O259        O  0.31323356  0.31838517  0.06104113    -0.83100
C260        C  0.31042353  0.29867269  0.07499949     0.92400
O261        O  0.24330094  0.29719778  0.93110563    -0.83100
Mg262      Mg  0.20461036  0.18502011  0.97222541     1.58200
O263        O  0.34333552  0.34737445  0.01656528    -0.81400
O264        O  0.15655290  0.14284238  0.01888054    -0.83100
O265        O  0.03026044  0.22181355  0.99645349    -0.88700
C266        C  0.47160982  0.22810244  0.95342741     0.87300
Mg267      Mg  0.01427519  0.20115514  0.02808122     1.58100
O268        O  0.02828415  0.29825871  0.97769436    -0.88400
O269        O  0.06649340  0.26170758  0.97924390    -0.75700
C270        C  0.44894866  0.27724294  0.07134733     0.92400
O271        O  0.45731161  0.17764052  0.99122862    -0.75600
O272        O  0.44911332  0.25174158  0.07310987    -0.83100
Mg273      Mg  0.50188550  0.19469879  0.97013294     1.58000
C274        C  0.99808988  0.35795873  0.00038029     0.92300
O275        O  0.04323238  0.20690911  0.94613780    -0.81300
H276        H  0.07271975  0.32962355  0.98412513    -0.06700
C277        C  0.44141915  0.25734667  0.00783801     0.87300
O278        O  0.03704966  0.24962431  0.04382724    -0.75800
O279        O  0.49769565  0.23369071  0.95945364    -0.88600
O280        O  0.99966621  0.34469020  0.98333657    -0.81400
C281        C  0.01396453  0.31426302  0.92459640     0.92400
C282        C  0.05201658  0.22311277  0.92893114     0.92300
Mg283      Mg  0.99888193  0.30431992  0.03022645     1.58000
O284        O  0.45807442  0.29307114  0.05404145    -0.81300
O285        O  0.04290355  0.32133966  0.00908172    -0.75600
O286        O  0.02723925  0.29796451  0.92654507    -0.81400
O287        O  0.50682169  0.15364344  0.98134582    -0.83100
O288        O  0.47673778  0.20502121  0.07545413    -0.81400
C289        C  0.04884561  0.31703672  0.98985175     0.86700
O290        O  0.00275395  0.26499027  0.04086383    -0.88600
O291        O  0.46924284  0.27615128  0.00459155    -0.88700
O292        O  0.43310850  0.23675008  0.02230384    -0.75700
Mg293      Mg  0.04161106  0.27548123  0.95367893     1.58000
O294        O  0.99688610  0.31502282  0.93954373    -0.83100
H295        H  0.07554950  0.24007401  0.00352498    -0.06800
O296        O  0.47073490  0.20015921  0.02293591    -0.88400
H297        H  0.42641913  0.16960856  0.01547133    -0.06700
H298        H  0.04365636  0.29058037  0.05577495    -0.06900
C299        C  0.45053227  0.18196246  0.01028450     0.86700
C300        C  0.05807317  0.24095069  0.99361298     0.87300
C301        C  0.02825234  0.26931752  0.04732546     0.87300
H302        H  0.42383573  0.25828175  0.99809501    -0.06800
O303        O  0.46127321  0.24630041  0.95773803    -0.75900
Mg304      Mg  0.45895975  0.22397895  0.04757313     1.58000
H305        H  0.45675721  0.20659568  0.94505003    -0.06800
C306        C  0.50044485  0.13991613  0.99942758     0.92300
O307        O  0.49633589  0.17806088  0.06020033    -0.83100
C308        C  0.48351099  0.18333476  0.07613753     0.92400
O309        O  0.05190951  0.24867607  0.92781735    -0.83100
Mg310      Mg  0.48294910  0.29484956  0.97258418     1.58200
O311        O  0.49543667  0.15147621  0.01615309    -0.81400
O312        O  0.99468170  0.34576580  0.01887337    -0.83100
O313        O  0.13331573  0.01962557  0.67005414    -0.88700
C314        C  0.19737492  0.09069924  0.70815035     0.87300
Mg315      Mg  0.14287370  0.01327607  0.63721660     1.58100
O316        O  0.13749912  0.10127882  0.68659627    -0.88400
O317        O  0.09929681  0.02738332  0.68748326    -0.75700
C318        C  0.21219760  0.15387865  0.59416412     0.92400
O319        O  0.20908017  0.04887517  0.66938559    -0.75600
O320        O  0.21390878  0.12921092  0.59348199    -0.83100
Mg321      Mg  0.16906491  0.02619216  0.69346594     1.58000
C322        C  0.16308437  0.18988559  0.66291558     0.92300
O323        O  0.13679371  0.00184622  0.72243500    -0.81300
H324        H  0.09235697  0.08879720  0.68415245    -0.06700
C325        C  0.22066386  0.14377638  0.65647176     0.87300
O326        O  0.12069028  0.04072547  0.62397150    -0.75800
O327        O  0.17201010  0.06940695  0.70183079    -0.88600
O328        O  0.16263573  0.17623945  0.68020530    -0.81400
C329        C  0.15297099  0.12914208  0.73867279     0.92400
C330        C  0.12430756  0.00913211  0.73768856     0.92300
Mg331      Mg  0.16039023  0.13303992  0.63465934     1.58000
O332        O  0.19721270  0.15833449  0.60910896    -0.81300
O333        O  0.11806515  0.10846059  0.65725220    -0.75600
O334        O  0.15275194  0.10359084  0.73704747    -0.81400
O335        O  0.16499396  0.48069846  0.68348895    -0.83100
O336        O  0.18132913  0.05432669  0.59016495    -0.81400
C337        C  0.11505870  0.09921329  0.67654094     0.86700
O338        O  0.15673910  0.08964232  0.62518496    -0.88600
O339        O  0.19367231  0.13849133  0.65932420    -0.88700
O340        O  0.22695255  0.12821480  0.64313757    -0.75700
Mg341      Mg  0.12865144  0.06713381  0.71074605     1.58000
O342        O  0.16254305  0.14835982  0.72334253    -0.83100
H343        H  0.08732391  0.99280682  0.66566496    -0.06800
O344        O  0.18807646  0.05456728  0.64038131    -0.88400
H345        H  0.23271053  0.06505272  0.64135477    -0.06700
H346        H  0.11466514  0.07546282  0.61241836    -0.06900
C347        C  0.21070643  0.05609775  0.64977315     0.86700
C348        C  0.10596273  0.01211480  0.67418315     0.87300
C349        C  0.13034212  0.06905850  0.61993008     0.87300
H350        H  0.23928125  0.16147452  0.66605456    -0.06800
O351        O  0.20481949  0.11889023  0.70559806    -0.75900
Mg352      Mg  0.20020586  0.09055473  0.61767057     1.58000
H353        H  0.21363898  0.08525114  0.71585484    -0.06800
C354        C  0.16240969  0.46818975  0.66512430     0.92300
O355        O  0.15406276  0.00644136  0.60299991    -0.83100
C356        C  0.16854413  0.02496142  0.58768248     0.92400
O357        O  0.11976623  0.03198776  0.73612302    -0.83100
Mg358      Mg  0.18041226  0.14404657  0.69117564     1.58200
O359        O  0.15849054  0.97925435  0.64782891    -0.81400
O360        O  0.16459708  0.17939811  0.64448070    -0.83100
C361        C  0.10955518  0.17322315  0.85071315     0.01900
C362        C  0.08197908  0.17550079  0.85107601     0.01900
C363        C  0.06313337  0.16682426  0.83239140    -0.18600
C364        C  0.07160919  0.15665042  0.81351260     0.01900
C365        C  0.10027804  0.15643378  0.81326639     0.01900
C366        C  0.11808227  0.16373402  0.83196914    -0.18600
H367        H  0.13932058  0.16229922  0.83186722     0.04000
H368        H  0.04176892  0.16794687  0.83254646     0.04000
C369        C  0.08883536  0.43045721  0.85604459     0.01900
C370        C  0.05796494  0.40479814  0.85498529     0.01900
C371        C  0.03972621  0.40078359  0.83661155    -0.18600
C372        C  0.05240242  0.41918423  0.81812692     0.01900
C373        C  0.08454600  0.44245487  0.81827504     0.01900
C374        C  0.10203022  0.44806165  0.83733579    -0.18600
H375        H  0.12625701  0.46631847  0.83764798     0.04000
H376        H  0.01555533  0.38238622  0.83650884     0.04000
O377        O  0.46995668  0.10970348  0.67007988    -0.88700
C378        C  0.40570931  0.09991164  0.71551654     0.87300
Mg379      Mg  0.47138619  0.12696504  0.63820740     1.58100
O380        O  0.39335271  0.03164258  0.68883708    -0.88400
O381        O  0.46799210  0.06929655  0.68504926    -0.75700
C382        C  0.32677574  0.05447386  0.60141632     0.92400
O383        O  0.43951718  0.15359474  0.67693722    -0.75600
O384        O  0.35174704  0.08063029  0.59997232    -0.83100
Mg385      Mg  0.46776359  0.13730349  0.69656522     1.58000
C386        C  0.30224683  0.46967936  0.66864885     0.92300
O387        O  0.49737461  0.12873554  0.72156743    -0.81300
H388        H  0.40719389  0.00155377  0.68018385    -0.06700
C389        C  0.34328948  0.07095027  0.66510482     0.87300
O390        O  0.44322631  0.07851744  0.62374731    -0.75800
O391        O  0.42660656  0.09642516  0.70738984    -0.88600
O392        O  0.31785093  0.48210244  0.68556756    -0.81400
C393        C  0.36962115  0.01570253  0.74309316     0.92400
C394        C  0.49360883  0.10930582  0.73626602     0.92300
Mg395      Mg  0.35305505  0.02574151  0.63886941     1.58000
O396        O  0.32111649  0.03730627  0.61795247    -0.81300
O397        O  0.38273287  0.00917970  0.65714898    -0.75600
O398        O  0.39810134  0.03652632  0.74074003    -0.81400
O399        O  0.01168752  0.17989692  0.68418956    -0.83100
O400        O  0.42468788  0.12859143  0.59562571    -0.81400
C401        C  0.39480858  0.01353234  0.67578879     0.86700
O402        O  0.39435136  0.06569260  0.62771482    -0.88600
O403        O  0.35213458  0.05175942  0.66626713    -0.88700
O404        O  0.35488450  0.09266303  0.65137935    -0.75700
Mg405      Mg  0.43123821  0.05554886  0.71159182     1.58000
O406        O  0.34944401  0.00973329  0.72857258    -0.83100
H407        H  0.49830775  0.09373083  0.66113975    -0.06800
O408        O  0.42961971  0.13002646  0.64586270    -0.88400
H409        H  0.41708744  0.16161708  0.65272219    -0.06700
H410        H  0.40724373  0.03905320  0.61155793    -0.06900
C411        C  0.42857178  0.14915064  0.65803718     0.86700
C412        C  0.47985110  0.09141469  0.67172191     0.87300
C413        C  0.41445161  0.06041037  0.62029345     0.87300
H414        H  0.32566800  0.06949723  0.67616330    -0.06800
O415        O  0.37713591  0.07991512  0.71293873    -0.75900
Mg416      Mg  0.39109056  0.10698146  0.62398432     1.58000
H417        H  0.41186066  0.12081714  0.72454559    -0.06800
C418        C  0.02119999  0.19047099  0.66532186     0.92300
O419        O  0.47386962  0.14622329  0.60522913    -0.83100
C420        C  0.45384922  0.14459271  0.59179381     0.92400
O421        O  0.47072343  0.08173184  0.73542817    -0.83100
Mg422      Mg  0.35080515  0.03177109  0.69712090     1.58200
O423        O  0.50702525  0.17594666  0.64843376    -0.81400
O424        O  0.30972890  0.48289462  0.65042577    -0.83100
O425        O  0.35937188  0.30811733  0.65954711    -0.88700
C426        C  0.43244868  0.35900437  0.61885660     0.87300
Mg427      Mg  0.35017432  0.32667249  0.68776316     1.58100
O428        O  0.43854781  0.30335709  0.65020731    -0.88400
O429        O  0.36458149  0.26947306  0.64745725    -0.75700
C430        C  0.48632645  0.39669777  0.73661281     0.92400
O431        O  0.38879865  0.38121254  0.64795873    -0.75600
O432        O  0.46165578  0.39858463  0.73482871    -0.83100
Mg433      Mg  0.36539215  0.33392989  0.63071864     1.58000
C434        C  0.02387676  0.33114574  0.68205945     0.92300
O435        O  0.33908203  0.28873226  0.61229100    -0.81300
H436        H  0.42183448  0.26006415  0.66099991    -0.06700
C437        C  0.48325881  0.39333416  0.67130748     0.87300
O438        O  0.37494922  0.30794152  0.70900346    -0.75800
O439        O  0.41012815  0.33608100  0.62708597    -0.88600
O440        O  0.51149632  0.32669941  0.66343190    -0.81400
C441        C  0.47081193  0.30888928  0.59797745     0.92400
C442        C  0.34877098  0.28297835  0.59496628     0.92300
Mg443      Mg  0.46813058  0.34076278  0.70166305     1.58000
O444        O  0.49569306  0.38604454  0.72137461    -0.81300
O445        O  0.44193696  0.29334202  0.68409637    -0.75600
O446        O  0.44496155  0.30868645  0.59816607    -0.81400
O447        O  0.31801276  0.33092290  0.63423149    -0.83100
O448        O  0.38853274  0.37319448  0.73186673    -0.81400
C449        C  0.43371392  0.28456804  0.66475181     0.86700
O450        O  0.42466686  0.34079484  0.70575267    -0.88600
O451        O  0.47602122  0.36566077  0.67204361    -0.88700
O452        O  0.46852424  0.40391752  0.68206862    -0.75700
Mg453      Mg  0.40617700  0.29152050  0.62362146     1.58000
O454        O  0.48920280  0.31917909  0.61406177    -0.83100
H455        H  0.33119424  0.26435309  0.66896665    -0.06800
O456        O  0.39328805  0.37013628  0.68128380    -0.88400
H457        H  0.40630403  0.41334497  0.67190287    -0.06700
H458        H  0.40844317  0.30427133  0.72538927    -0.06900
C459        C  0.39630958  0.38920927  0.66743988     0.86700
C460        C  0.35077302  0.28011603  0.65911973     0.87300
C461        C  0.40312750  0.31740254  0.71403329     0.87300
H462        H  0.50238228  0.40888734  0.66106284    -0.06800
O463        O  0.46043294  0.36572627  0.62271069    -0.75900
Mg464      Mg  0.42759438  0.38531834  0.70665823     1.58000
H465        H  0.42812837  0.37350452  0.60812418    -0.06800
C466        C  0.30515326  0.33497133  0.65064101     0.92300
O467        O  0.34080321  0.34618415  0.71787588    -0.83100
C468        C  0.35897981  0.36180873  0.73314602     0.92400
O469        O  0.37403699  0.28215212  0.59473714    -0.83100
Mg470      Mg  0.48300144  0.34382062  0.64390738     1.58200
O471        O  0.31690792  0.33868142  0.66939966    -0.81400
O472        O  0.01387335  0.33975361  0.69805704    -0.83100
C473        C  0.29705331  0.38503698  0.84750059     0.01900
C474        C  0.30146095  0.41522159  0.84931279     0.01900
C475        C  0.31481472  0.43595277  0.83238231    -0.18600
C476        C  0.32226373  0.42698374  0.81285608     0.01900
C477        C  0.31630408  0.39585178  0.81040994     0.01900
C478        C  0.30311758  0.37519970  0.82783961    -0.18600
H479        H  0.29879580  0.35164915  0.82643222     0.04000
H480        H  0.31912529  0.45944401  0.83438732     0.04000
C481        C  0.00595751  0.26390228  0.48050879     0.01900
C482        C  0.00345138  0.23407568  0.48043120     0.01900
C483        C  0.99411272  0.21637787  0.49917743    -0.18600
C484        C  0.48841496  0.22729265  0.51839942     0.01900
C485        C  0.49233810  0.25769052  0.51915127     0.01900
C486        C  0.00049183  0.27517845  0.49999491    -0.18600
H487        H  0.00274541  0.29800753  0.50026141     0.04000
H488        H  0.99177310  0.19347695  0.49890058     0.04000
C489        C  0.25750096  0.27767672  0.48705078     0.01900
C490        C  0.22840171  0.24978835  0.48656550     0.01900
C491        C  0.21971784  0.22937521  0.50407359    -0.18600
C492        C  0.24028407  0.23564341  0.52141259     0.01900
C493        C  0.26991785  0.26309825  0.52131072     0.01900
C494        C  0.27783558  0.28396920  0.50431150    -0.18600
H495        H  0.30047251  0.30493957  0.50418026     0.04000
H496        H  0.19741246  0.20805697  0.50384025     0.04000
C497        C  0.23381962  0.48740542  0.47940258     0.01900
C498        C  0.26625298  0.49917273  0.48299052     0.01900
C499        C  0.27871543  0.51119164  0.50345779    -0.18600
C500        C  0.25981414  0.01194628  0.52035249     0.01900
C501        C  0.22769649  0.00123067  0.51641287     0.01900
C502        C  0.21518923  0.48851659  0.49620922    -0.18600
H503        H  0.19055973  0.47992387  0.49336441     0.04000
H504        H  0.30332711  0.51983768  0.50637122     0.04000
O505        O  0.00930347  0.45861135  0.01847941    -0.88700
C506        C  0.06077575  0.02287182  0.97271601     0.87300
Mg507      Mg  0.46078732  0.42463282  0.01400519     1.58100
O508        O  0.03666020  0.05130600  0.01681479    -0.88400
O509        O  0.03846256  0.99460616  0.04131802    -0.75700
C510        C  0.39001276  0.50054980  0.98180003     0.92400
O511        O  0.00267777  0.45026613  0.96689306    -0.75600
O512        O  0.38954936  0.47518894  0.97770655    -0.83100
Mg513      Mg  0.04076868  0.46290566  0.99244173     1.58000
C514        C  0.99881094  0.10979291  0.00097870     0.92300
O515        O  0.08381576  0.47316003  0.01259160    -0.81300
H516        H  0.03702382  0.06057384  0.04816401    -0.06700
C517        C  0.48068277  0.03076789  0.96293861     0.87300
O518        O  0.44414672  0.45387999  0.03243032    -0.75800
O519        O  0.05521098  0.01134635  0.99084952    -0.88600
O520        O  0.02363845  0.10850068  0.99757958    -0.81400
C521        C  0.11182692  0.10774552  0.99932720     0.92400
C522        C  0.10841777  0.49710223  0.01920970     0.92300
Mg523      Mg  0.45786881  0.03514751  0.00769017     1.58000
O524        O  0.41470689  0.02488107  0.98760196    -0.81300
O525        O  0.49595084  0.04800471  0.03319603    -0.75600
O526        O  0.10863780  0.08286253  0.00735019    -0.81400
O527        O  0.02607343  0.41210498  0.99544948    -0.83100
O528        O  0.38997852  0.41543242  0.99345691    -0.81400
C529        C  0.02407199  0.05390572  0.03326432     0.86700
O530        O  0.44364459  0.48672560  0.00952483    -0.88600
O531        O  0.48925538  0.03925184  0.98156676    -0.88700
O532        O  0.45954385  0.50318530  0.95889546    -0.75700
Mg533      Mg  0.07129268  0.03687218  0.02103020     1.58000
O534        O  0.08909914  0.10959803  0.99129755    -0.83100
H535        H  0.00625145  0.45113491  0.05018073    -0.06800
O536        O  0.46186513  0.44671579  0.98329520    -0.88400
H537        H  0.46167560  0.43790863  0.95187597    -0.06700
H538        H  0.42910706  0.48406045  0.03990401    -0.06900
C539        C  0.47455115  0.44437516  0.96680809     0.86700
C540        C  0.01765778  0.46717782  0.03712917     0.87300
C541        C  0.43820932  0.47516229  0.02764220     0.87300
H542        H  0.49194941  0.04684469  0.94988191    -0.06800
O543        O  0.05466125  0.04398065  0.96777789    -0.75900
Mg544      Mg  0.42715420  0.46107342  0.97947785     1.58000
H545        H  0.07006358  0.01403449  0.96056943    -0.06800
C546        C  0.99972370  0.38810124  0.99871687     0.92300
O547        O  0.40961420  0.38828505  0.00872324    -0.83100
C548        C  0.38683366  0.39039781  0.00110735     0.92400
O549        O  0.10888549  0.02247151  0.02347003    -0.83100
Mg550      Mg  0.03785129  0.07320071  0.98595021     1.58200
O551        O  0.47480005  0.38933963  0.00180369    -0.81400
O552        O  0.47254957  0.08587192  0.00463772    -0.83100
O553        O  0.37177886  0.15277623  0.31527416    -0.88700
C554        C  0.31268068  0.11056797  0.36669053     0.87300
Mg555      Mg  0.40934806  0.20051089  0.31467817     1.58100
O556        O  0.28137547  0.13003664  0.32226335    -0.88400
O557        O  0.33178964  0.11938591  0.29648443    -0.75700
C558        C  0.34496396  0.28187461  0.35000332     0.92400
O559        O  0.38808934  0.16756678  0.36564259    -0.75600
O560        O  0.37141999  0.28320134  0.34968354    -0.83100
Mg561      Mg  0.37000678  0.12554477  0.34303902     1.58000
C562        C  0.22972635  0.17377011  0.33647801     0.92300
O563        O  0.35484810  0.07967393  0.32473023    -0.81300
H564        H  0.27076287  0.12740191  0.29102735    -0.06700
C565        C  0.31455276  0.19410964  0.37195346     0.87300
O566        O  0.37946888  0.21694413  0.29710842    -0.75800
O567        O  0.32219154  0.11363817  0.34799356    -0.88600
O568        O  0.22990861  0.14870573  0.33965575    -0.81400
C569        C  0.22282918  0.06057467  0.34548188     0.92400
C570        C  0.32923984  0.05425218  0.32233806     0.92300
Mg571      Mg  0.30449261  0.21154015  0.32775432     1.58000
O572        O  0.31943268  0.25621615  0.34806548    -0.81300
O573        O  0.28704185  0.17020852  0.30413836    -0.75600
O574        O  0.24740451  0.06024918  0.33960745    -0.81400
O575        O  0.42020179  0.13767986  0.33756850    -0.83100
O576        O  0.42766799  0.27567884  0.32996288    -0.81400
C577        C  0.27910458  0.14167878  0.30531318     0.86700
O578        O  0.35207284  0.22338612  0.32207611    -0.88600
O579        O  0.30213191  0.18281757  0.35448938    -0.88700
O580        O  0.34294576  0.21551506  0.37308698    -0.75700
Mg581      Mg  0.29183727  0.09267374  0.32067387     1.58000
O582        O  0.22312363  0.08545818  0.35067100    -0.83100
H583        H  0.37416010  0.14866506  0.28340790    -0.06800
O584        O  0.39408853  0.20693651  0.34646699    -0.88400
H585        H  0.40618171  0.21124596  0.37746541    -0.06700
H586        H  0.35022639  0.23372728  0.29127654    -0.06900
C587        C  0.39695093  0.19615554  0.36361491     0.86700
C588        C  0.36011970  0.14066881  0.29783681     0.87300
C589        C  0.36031700  0.22545298  0.30311408     0.87300
H590        H  0.30109047  0.18546767  0.38657297    -0.06800
O591        O  0.29239931  0.11789174  0.37210021    -0.75900
Mg592      Mg  0.38303673  0.24366491  0.34896213     1.58000
H593        H  0.32229291  0.10209564  0.37877330    -0.06800
C594        C  0.44466879  0.16239462  0.33191832     0.92300
O595        O  0.44961419  0.25024107  0.31487960    -0.83100
C596        C  0.45084379  0.27515286  0.32123478     0.92400
O597        O  0.30302865  0.05323236  0.32110845    -0.83100
Mg598      Mg  0.26386864  0.13500969  0.35329208     1.58200
O599        O  0.44430177  0.18670688  0.32630415    -0.81400
O600        O  0.25450003  0.19953781  0.33353117    -0.83100
O601        O  0.15111939  0.36773005  0.68443492    -0.88700
C602        C  0.10110919  0.30484709  0.63748214     0.87300
Mg603      Mg  0.19915124  0.40292408  0.68115937     1.58100
O604        O  0.12475923  0.27646031  0.68136064    -0.88400
O605        O  0.12021523  0.33132523  0.70646744    -0.75700
C606        C  0.27510640  0.33415851  0.64864044     0.92400
O607        O  0.15875559  0.37665822  0.63312103    -0.75600
O608        O  0.27528964  0.35955165  0.64631698    -0.83100
Mg609      Mg  0.12029121  0.36376100  0.65852524     1.58000
C610        C  0.16409859  0.21980866  0.66443754     0.92300
O611        O  0.07848146  0.35356818  0.68062544    -0.81300
H612        H  0.12443206  0.26648066  0.71250602    -0.06700
C613        C  0.18400122  0.30122363  0.62808324     0.87300
O614        O  0.21587675  0.37409010  0.69967339    -0.75800
O615        O  0.10602236  0.31565407  0.65587085    -0.88600
O616        O  0.13884701  0.22061952  0.66253939    -0.81400
C617        C  0.05071338  0.21948926  0.66304733     0.92400
C618        C  0.05244456  0.32897915  0.68390475     0.92300
Mg619      Mg  0.20510692  0.29498854  0.67215529     1.58000
O620        O  0.24988534  0.30847604  0.65176710    -0.81300
O621        O  0.16577351  0.28008264  0.69737611    -0.75600
O622        O  0.05229604  0.24399972  0.67051708    -0.81400
O623        O  0.13506736  0.41429677  0.66132049    -0.83100
O624        O  0.27240161  0.41601447  0.66280806    -0.81400
C625        C  0.13748179  0.27380333  0.69763515     0.86700
O626        O  0.21858027  0.34312328  0.67593114    -0.88600
O627        O  0.17416628  0.29148614  0.64632198    -0.88700
O628        O  0.20568715  0.32893882  0.62509251    -0.75700
Mg629      Mg  0.08880267  0.28941721  0.68517107     1.58000
O630        O  0.07433921  0.21876636  0.65540825    -0.83100
H631        H  0.15246573  0.37461338  0.71621390    -0.06800
O632        O  0.20019439  0.38274214  0.65012029    -0.88400
H633        H  0.20046969  0.39042004  0.61856443    -0.06700
H634        H  0.23157588  0.34432364  0.70651599    -0.06900
C635        C  0.18732970  0.38393895  0.63342014     0.86700
C636        C  0.14173966  0.35884812  0.70286965     0.87300
C637        C  0.22274638  0.35355157  0.69440800     0.87300
H638        H  0.17375203  0.28600821  0.61440461    -0.06800
O639        O  0.10809858  0.28447207  0.63202809    -0.75900
Mg640      Mg  0.23640131  0.37076828  0.64701732     1.58000
H641        H  0.09174477  0.31376897  0.62558363    -0.06800
C642        C  0.16134945  0.43849832  0.66425261     0.92300
O643        O  0.24913188  0.44043820  0.67710469    -0.83100
C644        C  0.27325179  0.44022089  0.67025234     0.92400
O645        O  0.05045168  0.30259757  0.68595369    -0.83100
Mg646      Mg  0.12527179  0.25593872  0.65024030     1.58200
O647        O  0.18609717  0.43761870  0.66814704    -0.81400
O648        O  0.19054556  0.24418186  0.66694828    -0.83100
C649        C  0.35545984  0.36365324  0.77326033    -0.02200
C650        C  0.34566476  0.36769486  0.75286997     0.07500
C651        C  0.32380672  0.37815212  0.75148759    -0.02300
C652        C  0.31244839  0.38502557  0.77034966    -0.02300
C653        C  0.32506904  0.38456268  0.79061278     0.07600
C654        C  0.34598025  0.37278421  0.79198776    -0.02500
Br655      Br  0.36337729  0.37019520  0.81922915    -0.01000
Br656      Br  0.38090637  0.34421929  0.77567589    -0.01100
Br657      Br  0.27753038  0.39211907  0.76836334    -0.01100
Br658      Br  0.31050074  0.38500679  0.72383249    -0.01100
C659        C  0.32123273  0.30077947  0.57015456    -0.02200
C660        C  0.33102947  0.27911964  0.57495080     0.07500
C661        C  0.32469022  0.25512647  0.56017517    -0.02300
C662        C  0.30739885  0.25206329  0.54148430    -0.02300
C663        C  0.29311449  0.27033784  0.53877460     0.07600
C664        C  0.30134442  0.29575970  0.55264379    -0.02500
Br665      Br  0.28631480  0.32445281  0.54751087    -0.01000
Br666      Br  0.33758630  0.33923289  0.58598658    -0.01100
Br667      Br  0.30703063  0.22602114  0.51836007    -0.01100
Br668      Br  0.33851686  0.22571906  0.56558644    -0.01100
C669        C  0.01189705  0.29930532  0.54842534    -0.02200
C670        C  0.48749892  0.27144053  0.53940936     0.07500
C671        C  0.45817672  0.25687241  0.54973932    -0.02300
C672        C  0.45426919  0.26748737  0.56987487    -0.02300
C673        C  0.47808072  0.29568276  0.57861638     0.07600
C674        C  0.50700151  0.31156053  0.56775958    -0.02500
Br675      Br  0.03954506  0.35065001  0.57884960    -0.01000
Br676      Br  0.05203726  0.32143967  0.53426070    -0.01100
Br677      Br  0.41670121  0.24166036  0.58612849    -0.01100
Br678      Br  0.42179307  0.22541635  0.53504123    -0.01100
C679        C  0.31869912  0.46568666  0.78863223    -0.02200
C680        C  0.33549935  0.45100550  0.79563663     0.07500
C681        C  0.36566194  0.46113773  0.78728832    -0.02300
C682        C  0.37683072  0.48193922  0.76992013    -0.02300
C683        C  0.35978574  0.49607965  0.76267594     0.07600
C684        C  0.33132852  0.48876624  0.77273364    -0.02500
Br685      Br  0.30972784  0.51079932  0.76496495    -0.01000
Br686      Br  0.27772328  0.45397603  0.80006925    -0.01100
Br687      Br  0.41309016  0.98745659  0.75429353    -0.01100
Br688      Br  0.39328050  0.44943065  0.80088676    -0.01100
C689        C  0.29385956  0.01157474  0.57529341    -0.02200
C690        C  0.30525526  0.04249842  0.58249901     0.07500
C691        C  0.30015320  0.06286437  0.56952292    -0.02300
C692        C  0.28579219  0.05313801  0.54917147    -0.02300
C693        C  0.27411975  0.02227586  0.54216971     0.07600
C694        C  0.27856980  0.00170393  0.55528293    -0.02500
Br695      Br  0.26704551  0.46067943  0.54482535    -0.01000
Br696      Br  0.30140864  0.98278368  0.59151503    -0.01100
Br697      Br  0.28621949  0.08339568  0.52978590    -0.01100
Br698      Br  0.31228322  0.10413848  0.57963774    -0.01100
C699        C  0.44571285  0.15514924  0.55341280    -0.02200
C700        C  0.46455205  0.16423455  0.57210093     0.07500
C701        C  0.49217374  0.19379565  0.57250456    -0.02300
C702        C  0.50037492  0.21360490  0.55463496    -0.02300
C703        C  0.47968353  0.20604122  0.53721925     0.07600
C704        C  0.45276646  0.17615499  0.53634299    -0.02500
Br705      Br  0.42538206  0.16320926  0.51153735    -0.01000
Br706      Br  0.41086770  0.11336907  0.55036064    -0.01100
Br707      Br  0.04174162  0.24933490  0.55305786    -0.01100
Br708      Br  0.01873345  0.20933089  0.59764815    -0.01100
C709        C  0.01235671  0.43106900  0.76909721    -0.02200
C710        C  0.00246097  0.40308672  0.75772763     0.07500
C711        C  0.00533231  0.37906516  0.76749653    -0.02300
C712        C  0.01980996  0.38360545  0.78767102    -0.02300
C713        C  0.03237594  0.41259318  0.79835648     0.07600
C714        C  0.02676383  0.43558837  0.78947250    -0.02500
Br715      Br  0.03585797  0.47196279  0.80606569    -0.01000
Br716      Br  0.50685076  0.46345750  0.75658869    -0.01100
Br717      Br  0.02158012  0.34914824  0.80016908    -0.01100
Br718      Br  0.98767553  0.33870285  0.75378490    -0.01100
C719        C  0.05903769  0.16259202  0.77513194    -0.02200
C720        C  0.05028680  0.14556788  0.79437508     0.07500
C721        C  0.02242757  0.11673002  0.79481043    -0.02300
C722        C  0.00478789  0.10396557  0.77583244    -0.02300
C723        C  0.01462669  0.12025210  0.75584898     0.07600
C724        C  0.04266301  0.14956251  0.75582264    -0.02500
Br725      Br  0.06088806  0.17230473  0.72953894    -0.01000
Br726      Br  0.09114456  0.20556361  0.77587884    -0.01100
Br727      Br  0.46708423  0.06409194  0.77852192    -0.01100
Br728      Br  0.00769793  0.09488305  0.82181510    -0.01100
C729        C  0.10745341  0.46043137  0.75955156    -0.02200
C730        C  0.11697848  0.49235715  0.75857428     0.07500
C731        C  0.12193694  0.00898302  0.77812489    -0.02300
C732        C  0.11221787  0.49314289  0.79787311    -0.02300
C733        C  0.10003532  0.46075818  0.79848071     0.07600
C734        C  0.10100639  0.44539365  0.77960405    -0.02500
Br735      Br  0.09659200  0.40472774  0.78158303    -0.01000
Br736      Br  0.10168953  0.43627893  0.73378094    -0.01100
Br737      Br  0.11608931  0.01647153  0.82373307    -0.01100
Br738      Br  0.14426476  0.05391988  0.77869237    -0.01100
C739        C  0.15506941  0.16600987  0.76706639    -0.02200
C740        C  0.14034193  0.13589658  0.75822328     0.07500
C741        C  0.11202032  0.11259973  0.76726998    -0.02300
C742        C  0.10003104  0.11880229  0.78596141    -0.02300
C743        C  0.11325924  0.14937459  0.79380007     0.07600
C744        C  0.14106244  0.17294749  0.78430485    -0.02500
Br745      Br  0.16083596  0.21497392  0.79489326    -0.01000
Br746      Br  0.19504404  0.19776797  0.75617236    -0.01100
Br747      Br  0.06817957  0.08458597  0.80203012    -0.01100
Br748      Br  0.08732268  0.07299100  0.75313340    -0.01100
C749        C  0.19239044  0.48076886  0.54883753    -0.02200
C750        C  0.20681932  0.00364236  0.53285320     0.07500
C751        C  0.19958041  0.02774784  0.53187721    -0.02300
C752        C  0.18204153  0.03133630  0.54840225    -0.02300
C753        C  0.17422397  0.01287972  0.56705789     0.07600
C754        C  0.17729725  0.98591090  0.56644494    -0.02500
Br755      Br  0.16269552  0.45605346  0.58963343    -0.01000
Br756      Br  0.19035015  0.44127646  0.54541928    -0.01100
Br757      Br  0.16655515  0.05987628  0.54476083    -0.01100
Br758      Br  0.21302075  0.05589490  0.50797467    -0.01100
C759        C  0.22662010  0.22263914  0.56009615    -0.02200
C760        C  0.23110815  0.21348412  0.53959732     0.07500
C761        C  0.23114472  0.18532960  0.53715384    -0.02300
C762        C  0.22952784  0.16782287  0.55534942    -0.02300
C763        C  0.22445784  0.17669035  0.57609421     0.07600
C764        C  0.22516552  0.20549652  0.57835643    -0.02500
Br765      Br  0.22721165  0.22390499  0.60629775    -0.01000
Br766      Br  0.21850606  0.25665521  0.56284289    -0.01100
Br767      Br  0.23699832  0.13348162  0.55112418    -0.01100
Br768      Br  0.23112633  0.16935134  0.50874141    -0.01100
C769        C  0.04485376  0.35255501  0.86974602    -0.02200
C770        C  0.04456897  0.38068369  0.87215188     0.07500
C771        C  0.02965953  0.38470759  0.89013001    -0.02300
C772        C  0.01857039  0.36275668  0.90693876    -0.03500
C773        C  0.02105740  0.33530898  0.90547243     0.07600
C774        C  0.03324625  0.33003691  0.88617879    -0.02500
Br775      Br  0.03345983  0.29162990  0.88127880    -0.01000
Br776      Br  0.06040221  0.34408934  0.84353027    -0.01100
Br777      Br  0.50151675  0.37264591  0.93193454    -0.01100
Br778      Br  0.02286354  0.41972802  0.89106033    -0.01100
C779        C  0.08244972  0.23138981  0.89393477    -0.02200
C780        C  0.06067732  0.21092228  0.90932935     0.07500
C781        C  0.04426584  0.17861737  0.90444673    -0.02300
C782        C  0.05014095  0.16731089  0.88506300    -0.02300
C783        C  0.07319362  0.18762252  0.87053489     0.07600
C784        C  0.08780074  0.21979061  0.87449761    -0.02500
Br785      Br  0.11180668  0.24819350  0.85188558    -0.01000
Br786      Br  0.10622931  0.27553696  0.89926148    -0.01100
Br787      Br  0.02385280  0.12431633  0.87731163    -0.01100
Br788      Br  0.51183905  0.14905870  0.92325807    -0.01100
C789        C  0.30693928  0.36145855  0.90332368    -0.02200
C790        C  0.27538229  0.34066353  0.90927133     0.07500
C791        C  0.25170434  0.33214282  0.89335142    -0.02300
C792        C  0.25970476  0.34284032  0.87208584    -0.02300
C793        C  0.29028984  0.36576529  0.86713241     0.07600
C794        C  0.31406408  0.37395037  0.88242130    -0.02500
Br795      Br  0.35699881  0.40036635  0.87378061    -0.01000
Br796      Br  0.34152549  0.37305000  0.92283344    -0.01100
Br797      Br  0.22962008  0.32379499  0.84924654    -0.01100
Br798      Br  0.20764062  0.30786587  0.90015240    -0.01100
C799        C  0.14052292  0.16095134  0.90327282    -0.02200
C800        C  0.16998100  0.18850943  0.90471417     0.07500
C801        C  0.18054453  0.20923028  0.88712341    -0.02300
C802        C  0.16000579  0.20542490  0.87034369    -0.02300
C803        C  0.12987628  0.17910377  0.86968763     0.07600
C804        C  0.12175685  0.15555483  0.88502229    -0.02500
Br805      Br  0.08722870  0.11449450  0.87969093    -0.01000
Br806      Br  0.12405353  0.13052478  0.92608225    -0.01100
Br807      Br  0.17422041  0.23605669  0.84797880    -0.01100
Br808      Br  0.22377435  0.24192912  0.88504035    -0.01100
C809        C  0.12263481  0.42498178  0.88423709    -0.02200
C810        C  0.10728486  0.44045612  0.87657284     0.07500
C811        C  0.11054187  0.46647866  0.88826066    -0.02300
C812        C  0.12887168  0.47665782  0.90722256    -0.02300
C813        C  0.14287410  0.45994005  0.91533201     0.07600
C814        C  0.13762124  0.43279660  0.90433383    -0.02500
Br815      Br  0.14734555  0.40374216  0.91779260    -0.01000
Br816      Br  0.12799354  0.39660276  0.86609226    -0.01100
Br817      Br  0.13523082  0.51393909  0.92150278    -0.01100
Br818      Br  0.09122578  0.48937176  0.87780745    -0.01100
C819        C  0.30195863  0.45379998  0.90220526    -0.02200
C820        C  0.27013395  0.43568798  0.90838698     0.07500
C821        C  0.24861799  0.41400328  0.89359873    -0.02300
C822        C  0.25884562  0.41085209  0.87317351    -0.02300
C823        C  0.29095843  0.42489113  0.86870494     0.07600
C824        C  0.31254569  0.44736690  0.88289092    -0.02500
Br825      Br  0.35633407  0.47073167  0.87542664    -0.01000
Br826      Br  0.33097000  0.48974624  0.91854416    -0.01100
Br827      Br  0.22897018  0.39140642  0.85030121    -0.01100
Br828      Br  0.20554421  0.38687572  0.90115174    -0.01100
C829        C  0.45081579  0.33348189  0.11469646    -0.02200
C830        C  0.42589375  0.31355771  0.12830193     0.07500
C831        C  0.40935453  0.28149879  0.12344721    -0.02300
C832        C  0.41538042  0.26991445  0.10429834    -0.02300
C833        C  0.43969057  0.28989718  0.09026753     0.07600
C834        C  0.45739172  0.32191603  0.09570638    -0.02500
Br835      Br  0.99219071  0.35047399  0.07802964    -0.01000
Br836      Br  0.47786671  0.37634914  0.12272589    -0.01100
Br837      Br  0.38900130  0.22663365  0.09710052    -0.01100
Br838      Br  0.38145421  0.25256712  0.14452377    -0.01100
C839        C  0.37574429  0.34084794  0.11534560    -0.02200
C840        C  0.36645690  0.31788459  0.13132875     0.07500
C841        C  0.33531019  0.29294249  0.13122941    -0.02300
C842        C  0.31546139  0.28927563  0.11391197    -0.02300
C843        C  0.32722456  0.30889154  0.09580413     0.07600
C844        C  0.35723665  0.33561930  0.09699441    -0.02500
Br845      Br  0.37466307  0.36498619  0.07359268    -0.01000
Br846      Br  0.41141980  0.38141424  0.11998810    -0.01100
Br847      Br  0.27153013  0.25869298  0.11568619    -0.01100
Br848      Br  0.31889677  0.26421375  0.15497189    -0.01100
C849        C  0.30482949  0.51103955  0.42823207    -0.02200
C850        C  0.31337983  0.48769882  0.42817320     0.07500
C851        C  0.31270489  0.47318929  0.44792053    -0.02300
C852        C  0.29924548  0.47839043  0.46641976    -0.02300
C853        C  0.28713101  0.49878350  0.46555055     0.07600
C854        C  0.29351714  0.51758986  0.44725039    -0.02500
Br855      Br  0.28967614  0.05425563  0.44904326    -0.01000
Br856      Br  0.30549418  0.03267326  0.40231929    -0.01100
Br857      Br  0.29734133  0.45719044  0.49276895    -0.01100
Br858      Br  0.33028336  0.44611852  0.44995040    -0.01100
C859        C  0.29649520  0.31729549  0.43509088    -0.02200
C860        C  0.28027963  0.33349831  0.43033056     0.07500
C861        C  0.26044586  0.33506551  0.44626795    -0.02300
C862        C  0.25611052  0.31960105  0.46593705    -0.02300
C863        C  0.26804148  0.29945522  0.46876480     0.07600
C864        C  0.28975844  0.29976394  0.45399005    -0.02500
Br865      Br  0.31227979  0.27819487  0.46049986    -0.01000
Br866      Br  0.33033145  0.32088669  0.41728667    -0.01100
Br867      Br  0.23813385  0.32954748  0.49016793    -0.01100
Br868      Br  0.23791324  0.35703337  0.44161077    -0.01100
C869        C  0.38149549  0.32510886  0.22551133    -0.02200
C870        C  0.38526221  0.34425249  0.20777103     0.07500
C871        C  0.37287981  0.36451635  0.20884344    -0.02300
C872        C  0.35978322  0.36753593  0.22812972    -0.02300
C873        C  0.36108924  0.35227353  0.24687649     0.07600
C874        C  0.37134504  0.33038525  0.24540397    -0.02500
Br875      Br  0.37381592  0.30884234  0.27047668    -0.01000
Br876      Br  0.38638257  0.28921768  0.22203982    -0.01100
Br877      Br  0.33904956  0.39194139  0.22857630    -0.01100
Br878      Br  0.37328407  0.38830809  0.18410849    -0.01100
C879        C  0.05304419  0.31481573  0.43315860    -0.02200
C880        C  0.03133236  0.32172787  0.42321342     0.07500
C881        C  0.00158926  0.31043286  0.43283265    -0.02300
C882        C  0.99349903  0.29204635  0.45163785    -0.02300
C883        C  0.01477068  0.28412546  0.46091399     0.07600
C884        C  0.04505593  0.29704067  0.45216071    -0.02500
Br885      Br  0.07697190  0.29342122  0.46749923    -0.01000
Br886      Br  0.09369587  0.32799128  0.42057347    -0.01100
Br887      Br  0.45329061  0.27851886  0.46497924    -0.01100
Br888      Br  0.97206666  0.32115236  0.42103041    -0.01100
C889        C  0.20744118  0.49186024  0.44620256    -0.02200
C890        C  0.21856136  0.47516311  0.45805058     0.07500
C891        C  0.21235263  0.44577856  0.45037483    -0.02300
C892        C  0.19634588  0.43393107  0.43072312    -0.02300
C893        C  0.18496495  0.45058127  0.41917938     0.07600
C894        C  0.19076783  0.47969864  0.42701421    -0.02500
Br895      Br  0.17355919  0.50232173  0.41263317    -0.01000
Br896      Br  0.21297286  0.53084616  0.45664401    -0.01100
Br897      Br  0.19057370  0.39525790  0.41935011    -0.01100
Br898      Br  0.22227160  0.41997629  0.46781272    -0.01100
C899        C  0.46592600  0.34335052  0.21319050    -0.02200
C900        C  0.45287903  0.35994661  0.20340200     0.07500
C901        C  0.46201445  0.39011244  0.21121933    -0.02300
C902        C  0.48046837  0.40183232  0.23003106    -0.02300
C903        C  0.49173958  0.38433018  0.24066460     0.07600
C904        C  0.48519945  0.35546781  0.23156448    -0.02500
Br905      Br  0.50426805  0.33293986  0.24337758    -0.01000
Br906      Br  0.45818082  0.30405068  0.20140324    -0.01100
Br907      Br  0.98930895  0.44148423  0.24154324    -0.01100
Br908      Br  0.45246910  0.41702362  0.19474972    -0.01100
C909        C  0.44518022  0.15168361  0.10560681    -0.02200
C910        C  0.47429490  0.16195283  0.09514960     0.07500
C911        C  0.49279518  0.14883524  0.10148488    -0.02300
C912        C  0.48157033  0.12474034  0.11686902    -0.02300
C913        C  0.45189877  0.11369644  0.12658681     0.07600
C914        C  0.43489923  0.12882077  0.12179954    -0.02500
Br915      Br  0.39934569  0.12110143  0.13915785    -0.01000
Br916      Br  0.41767112  0.16703851  0.09727727    -0.01100
Br917      Br  0.50774801  0.10771739  0.12512253    -0.01100
Br918      Br  0.03446652  0.16473689  0.09002361    -0.01100
C919        C  0.34164131  0.03302749  0.10691551    -0.02200
C920        C  0.35293853  0.03010231  0.08653092     0.07500
C921        C  0.38360900  0.03441768  0.08518969    -0.02300
C922        C  0.40285444  0.04297856  0.10362473    -0.02300
C923        C  0.39261601  0.04889950  0.12338279     0.07600
C924        C  0.36125882  0.04227369  0.12514235    -0.02500
Br925      Br  0.34428429  0.04507049  0.15265708    -0.01000
Br926      Br  0.29858070  0.02285696  0.11058346    -0.01100
Br927      Br  0.44207883  0.04340319  0.10224992    -0.01100
Br928      Br  0.40068778  0.02999416  0.05816808    -0.01100
C929        C  0.41058613  0.49284732  0.22483924    -0.02200
C930        C  0.39713379  0.00235612  0.24160332     0.07500
C931        C  0.38889034  0.02538156  0.23637605    -0.02300
C932        C  0.39466619  0.03846895  0.21561039    -0.02300
C933        C  0.40919633  0.02974845  0.19976956     0.07600
C934        C  0.41493526  0.00532380  0.20400045    -0.02500
Br935      Br  0.42502805  0.48670363  0.18018872    -0.01000
Br936      Br  0.42566565  0.46415405  0.22970529    -0.01100
Br937      Br  0.38003643  0.06666983  0.20791692    -0.01100
Br938      Br  0.37008702  0.04082269  0.25685941    -0.01100
C939        C  0.19899220  0.12708118  0.09073925    -0.02200
C940        C  0.22832271  0.15425315  0.08765313     0.07500
C941        C  0.24858923  0.16720133  0.10571866    -0.02300
C942        C  0.23773406  0.15597852  0.12652791    -0.02300
C943        C  0.20835055  0.12952735  0.12934457     0.07600
C944        C  0.18852247  0.11607938  0.11160164    -0.02500
Br945      Br  0.14555499  0.08484308  0.11632092    -0.01000
Br946      Br  0.17373492  0.10240626  0.06682201    -0.01100
Br947      Br  0.26206584  0.17829597  0.15141106    -0.01100
Br948      Br  0.29234547  0.19813637  0.10277156    -0.01100
C949        C  0.24474761  0.09142307  0.12699209    -0.02200
C950        C  0.21333038  0.07379546  0.13352561     0.07500
C951        C  0.19238746  0.04824465  0.12097857    -0.02300
C952        C  0.20195859  0.04286236  0.10085398    -0.02300
C953        C  0.23204310  0.06391742  0.09270714     0.07600
C954        C  0.25367830  0.08795022  0.10613141    -0.02500
Br955      Br  0.29495438  0.11736220  0.09588223    -0.01000
Br956      Br  0.27600721  0.11768838  0.14749219    -0.01100
Br957      Br  0.17428423  0.00518075  0.08546485    -0.01100
Br958      Br  0.15086901  0.01999688  0.13151382    -0.01100
C959        C  0.13738099  0.04210076  0.21337649    -0.02200
C960        C  0.16918514  0.05706094  0.20751609     0.07500
C961        C  0.18966951  0.05005609  0.21893163    -0.02300
C962        C  0.17867721  0.02967803  0.23661827    -0.02300
C963        C  0.14727400  0.01672291  0.24352067     0.07600
C964        C  0.12690877  0.02376378  0.23201177    -0.02500
Br965      Br  0.08498728  0.51063736  0.24202354    -0.01000
Br966      Br  0.10695903  0.04246943  0.19427915    -0.01100
Br967      Br  0.20679750  0.01868638  0.25055120    -0.01100
Br968      Br  0.23272377  0.06706198  0.20993030    -0.01100
C969        C  0.03808477  0.19432065  0.44683101    -0.02200
C970        C  0.02115193  0.18815336  0.42747155     0.07500
C971        C  0.99662914  0.19516511  0.42611878    -0.02300
C972        C  0.49054745  0.20964772  0.44353647    -0.02300
C973        C  0.01037068  0.21970158  0.46162385     0.07600
C974        C  0.03356483  0.21091737  0.46348354    -0.02500
Br975      Br  0.05935497  0.22102153  0.48898193    -0.01000
Br976      Br  0.06650934  0.17857504  0.45110515    -0.01100
Br977      Br  0.45310867  0.21265906  0.44335316    -0.01100
Br978      Br  0.47160954  0.18653040  0.40038503    -0.01100
C979        C  0.20159674  0.22036657  0.42974465    -0.02200
C980        C  0.17943178  0.23024084  0.42575506     0.07500
C981        C  0.17241946  0.24505873  0.44288765    -0.02300
C982        C  0.18593283  0.24834444  0.46339416    -0.02300
C983        C  0.20908121  0.24023617  0.46662820     0.07600
C984        C  0.21589581  0.22516018  0.45007719    -0.02500
Br985      Br  0.24285477  0.20830355  0.45611748    -0.01000
Br986      Br  0.21310073  0.19953550  0.40821112    -0.01100
Br987      Br  0.17019544  0.26062484  0.48776477    -0.01100
Br988      Br  0.14601179  0.26318882  0.43882539    -0.01100
C989        C  0.46626872  0.11272717  0.21434077    -0.02200
C990        C  0.46708019  0.08960235  0.20158773     0.07500
C991        C  0.48311066  0.07477957  0.20911657    -0.02300
C992        C  0.99375508  0.07905549  0.23041694    -0.02300
C993        C  0.49317311  0.10216312  0.24342790     0.07600
C994        C  0.47952406  0.11926987  0.23510947    -0.02500
Br995      Br  0.48001348  0.15293519  0.25118944    -0.01000
Br996      Br  0.44924761  0.13723994  0.20276266    -0.01100
Br997      Br  0.00734546  0.05162275  0.24181196    -0.01100
Br998      Br  0.99506257  0.05267635  0.18924739    -0.01100
C999        C  0.13472929  0.13488514  0.22034542    -0.02200
C1000       C  0.15211818  0.14368252  0.23980290     0.07500
C1001       C  0.18013732  0.14214524  0.24075487    -0.02300
C1002       C  0.18954996  0.13091857  0.22305300    -0.02300
C1003       C  0.17056826  0.11933781  0.20468353     0.07600
C1004       C  0.14415825  0.12319846  0.20285575    -0.02500
Br1005     Br  0.12125677  0.11366351  0.17604700    -0.01000
Br1006     Br  0.09814001  0.13926548  0.21688101    -0.01100
Br1007     Br  0.23029989  0.13446936  0.22309098    -0.01100
Br1008     Br  0.20568888  0.15329600  0.26641829    -0.01100
O1009       O  0.02813346  0.63479435  0.32940182    -0.88700
C1010       C  0.09439756  0.69295927  0.28669945     0.87300
Mg1011     Mg  0.02159036  0.64851487  0.36074621     1.58100
O1012       O  0.11035411  0.63927321  0.31307925    -0.88400
O1013       O  0.03530555  0.59922645  0.31426610    -0.75700
C1014       C  0.16042073  0.72114427  0.40531172     0.92400
O1015       O  0.05560434  0.70812932  0.32330147    -0.75600
O1016       O  0.13410010  0.71986100  0.40525483    -0.83100
Mg1017     Mg  0.03067988  0.66378721  0.30288515     1.58000
C1018       C  0.20000941  0.67338529  0.33713856     0.92300
O1019       O  0.00332484  0.62278034  0.27933412    -0.81300
H1020       H  0.09995284  0.59589260  0.31988772    -0.06700
C1021       C  0.15181607  0.72634934  0.34064583     0.87300
O1022       O  0.04989862  0.62889445  0.37656093    -0.75800
O1023       O  0.07451435  0.66756063  0.29378651    -0.88600
O1024       O  0.18600160  0.67098912  0.31955201    -0.81400
C1025       C  0.13974902  0.65168595  0.25948533     0.92400
C1026       C  0.01199714  0.61234874  0.26354401     0.92300
Mg1027     Mg  0.14307973  0.67096299  0.36507157     1.58000
O1028       O  0.16962696  0.71274764  0.38868500    -0.81300
O1029       O  0.11916420  0.62619883  0.34475317    -0.75600
O1030       O  0.11033388  0.63871758  0.26213600    -0.81400
O1031       O  0.48480228  0.66071973  0.31262870    -0.83100
O1032       O  0.06201503  0.69206748  0.40556465    -0.81400
C1033       C  0.10964376  0.61955672  0.32545737     0.86700
O1034       O  0.09855157  0.66548249  0.37397797    -0.88600
O1035       O  0.14467192  0.69896764  0.33827631    -0.88700
O1036       O  0.13760093  0.73417831  0.35412144    -0.75700
Mg1037     Mg  0.07421545  0.62433772  0.28929583     1.58000
O1038       O  0.15835334  0.66893252  0.27403897    -0.83100
H1039       H  0.00215527  0.58996262  0.33696598    -0.06800
O1040       O  0.06271861  0.69386355  0.35504275    -0.88400
H1041       H  0.07462335  0.73771872  0.34852083    -0.06700
H1042       H  0.08595237  0.62574192  0.38935628    -0.06900
C1043       C  0.06441323  0.71410704  0.34275436     0.86700
C1044       C  0.02080655  0.60734249  0.32724067     0.87300
C1045       C  0.07863800  0.63974417  0.38058069     0.87300
H1046       H  0.17024978  0.74392956  0.33089600    -0.06800
O1047       O  0.12313833  0.70389487  0.29067018    -0.75900
Mg1048     Mg  0.09842413  0.70822618  0.37901728     1.58000
H1049       H  0.08703859  0.70666351  0.27758160    -0.06800
C1050       C  0.47387885  0.66210288  0.33092550     0.92300
O1051       O  0.01379034  0.66313380  0.39338141    -0.83100
C1052       C  0.03263825  0.67967617  0.40799600     0.92400
O1053       O  0.03771255  0.61226408  0.26384194    -0.83100
Mg1054     Mg  0.15120668  0.68444434  0.30688368     1.58200
O1055       O  0.98673758  0.66183215  0.34846471    -0.81400
O1056       O  0.18969452  0.67629945  0.35526950    -0.83100
C1057       C  0.18022753  0.60615654  0.18656775     0.01900
C1058       C  0.18048301  0.57762527  0.18814267     0.01900
C1059       C  0.19130249  0.56759706  0.17061481    -0.18600
C1060       C  0.20183099  0.58500054  0.15175468     0.01900
C1061       C  0.20054021  0.61267273  0.14997106     0.01900
C1062       C  0.19047320  0.62326934  0.16743521    -0.18600
H1063       H  0.19032819  0.64492883  0.16602475     0.04000
H1064       H  0.19147747  0.54591844  0.17164216     0.04000
C1065       C  0.44903536  0.57893568  0.18122691     0.01900
C1066       C  0.42191970  0.54933878  0.17998786     0.01900
C1067       C  0.40533986  0.53981834  0.16055194    -0.18600
C1068       C  0.41381125  0.55991135  0.14267931     0.01900
C1069       C  0.44116522  0.58990884  0.14407406     0.01900
C1070       C  0.45842571  0.59852641  0.16330487    -0.18600
H1071       H  0.47904340  0.62128132  0.16458349     0.04000
H1072       H  0.38464877  0.51707652  0.15969297     0.04000
O1073       O  0.14525190  0.94891886  0.33661978    -0.88700
C1074       C  0.07577919  0.92647039  0.38022823     0.87300
Mg1075     Mg  0.14972896  0.97539256  0.30844729     1.58100
O1076       O  0.06882400  0.86354743  0.34956482    -0.88400
O1077       O  0.14287177  0.90612750  0.34800593    -0.75700
C1078       C  0.01150535  0.89575971  0.26071637     0.92400
O1079       O  0.11014372  0.98671494  0.34880912    -0.75600
O1080       O  0.03519227  0.92305756  0.26144190    -0.83100
Mg1081     Mg  0.13944535  0.96827709  0.36583537     1.58000
C1082       C  0.48069276  0.80407752  0.32136629     0.92300
O1083       O  0.17104180  0.95398349  0.38339870    -0.81300
H1084       H  0.08583144  0.83656976  0.33959141    -0.06700
C1085       C  0.01802839  0.90326638  0.32625715     0.87300
O1086       O  0.12797705  0.93073537  0.28777453    -0.75800
O1087       O  0.09780084  0.92525301  0.37179681    -0.88600
O1088       O  0.99321762  0.81443958  0.33968008    -0.81400
C1089       C  0.04031874  0.84071030  0.40315064     0.92400
C1090       C  0.16485962  0.93710003  0.39996250     0.92300
Mg1091     Mg  0.03589332  0.86526416  0.29794385     1.58000
O1092       O  0.00513495  0.87707257  0.27637183    -0.81300
O1093       O  0.06433804  0.84746029  0.31621623    -0.75600
O1094       O  0.06825272  0.86307229  0.40143988    -0.81400
O1095       O  0.18350020  0.51409073  0.36074222    -0.83100
O1096       O  0.10822444  0.97325370  0.26308325    -0.81400
C1097       C  0.07326927  0.84848856  0.33550438     0.86700
O1098       O  0.07752646  0.90919696  0.29188696    -0.88600
O1099       O  0.02874231  0.88549028  0.32691271    -0.88700
O1100       O  0.02990102  0.92698880  0.31413819    -0.75700
Mg1101     Mg  0.10418480  0.88601030  0.37411135     1.58000
O1102       O  0.02073512  0.83393668  0.38785757    -0.83100
H1103       H  0.17350474  0.93406854  0.32522131    -0.06800
O1104       O  0.10449636  0.97064941  0.31528525    -0.88400
H1105       H  0.08686361  0.99673239  0.32617227    -0.06700
H1106       H  0.09680886  0.89076479  0.27279435    -0.06900
C1107       C  0.10000125  0.98523475  0.32974677     0.86700
C1108       C  0.15480101  0.93014608  0.33613595     0.87300
C1109       C  0.10036377  0.90934141  0.28362121     0.87300
H1110       H  0.99831671  0.89870908  0.33634619    -0.06800
O1111       O  0.04773796  0.90609174  0.37628358    -0.75900
Mg1112     Mg  0.07030671  0.94813832  0.28936649     1.58000
H1113       H  0.08046864  0.94563014  0.39082024    -0.06800
C1114       C  0.19300526  0.53131705  0.34434938     0.92300
O1115       O  0.15378842  0.00334388  0.27904080    -0.83100
C1116       C  0.13588197  0.99652596  0.26287901     0.92400
O1117       O  0.14043979  0.91052010  0.40078085    -0.83100
Mg1118     Mg  0.02450772  0.86081523  0.35665278     1.58200
O1119       O  0.17922408  0.52263172  0.32621904    -0.81400
O1120       O  0.49166948  0.81919299  0.30406358    -0.83100
O1121       O  0.30941149  0.86018068  0.34469714    -0.88700
C1122       C  0.36422419  0.93411051  0.38292847     0.87300
Mg1123     Mg  0.32625514  0.85239424  0.31517499     1.58100
O1124       O  0.30559106  0.94108256  0.35520504    -0.88400
O1125       O  0.27181250  0.86683415  0.35754390    -0.75700
C1126       C  0.38749459  0.98535289  0.26291420     0.92400
O1127       O  0.38361414  0.89207406  0.35257402    -0.75600
O1128       O  0.39107813  0.96212631  0.26618327    -0.83100
Mg1129     Mg  0.33793930  0.86751951  0.37215601     1.58000
C1130       C  0.32986365  0.52501442  0.32344631     0.92300
O1131       O  0.29414756  0.84109837  0.39320043    -0.81300
H1132       H  0.26068263  0.92568743  0.34840574    -0.06700
C1133       C  0.39277036  0.98641564  0.32796569     0.87300
O1134       O  0.30269618  0.87489129  0.29644262    -0.75800
O1135       O  0.33936554  0.91162964  0.37698501    -0.88600
O1136       O  0.33105014  0.01518306  0.34235038    -0.81400
C1137       C  0.31948622  0.97599768  0.40763210     0.92400
C1138       C  0.28678568  0.85113835  0.40977175     0.92300
Mg1139     Mg  0.33409414  0.96758594  0.30178379     1.58000
O1140       O  0.37368018  0.99297822  0.27695250    -0.81300
O1141       O  0.28990317  0.94328608  0.32278656    -0.75600
O1142       O  0.30926164  0.94698906  0.40601575    -0.81400
O1143       O  0.33720303  0.82108693  0.36675097    -0.83100
O1144       O  0.36654489  0.89154629  0.27039369    -0.81400
C1145       C  0.28445083  0.93648252  0.34258261     0.86700
O1146       O  0.33476731  0.92493288  0.29755441    -0.88600
O1147       O  0.36456340  0.97738353  0.32909747    -0.88700
O1148       O  0.40301690  0.97157328  0.31726316    -0.75700
Mg1149     Mg  0.29460496  0.90840700  0.38101009     1.58000
O1150       O  0.33260917  0.99407286  0.39178099    -0.83100
H1151       H  0.26470148  0.83245530  0.33657433    -0.06800
O1152       O  0.36874764  0.89675485  0.32037336    -0.88400
H1153       H  0.41342035  0.91103141  0.32734797    -0.06700
H1154       H  0.29466032  0.90623162  0.28118925    -0.06900
C1155       C  0.38958054  0.90027469  0.33299089     0.86700
C1156       C  0.28139410  0.85214339  0.34590080     0.87300
C1157       C  0.31032838  0.90238846  0.29111215     0.87300
H1158       H  0.40899422  0.00684764  0.33687471    -0.06800
O1159       O  0.37180932  0.96165021  0.37764515    -0.75900
Mg1160     Mg  0.38059449  0.92966790  0.29458168     1.58000
H1161       H  0.38018846  0.93020501  0.39247864    -0.06800
C1162       C  0.34325100  0.81078503  0.34968125     0.92300
O1163       O  0.34253145  0.84366903  0.28322468    -0.83100
C1164       C  0.35578724  0.86267081  0.26794776     0.92400
O1165       O  0.28630055  0.87640453  0.40913080    -0.83100
Mg1166     Mg  0.34859427  0.98509234  0.35925233     1.58200
O1167       O  0.34536803  0.82323359  0.33139423    -0.81400
O1168       O  0.33252352  0.51233508  0.30633742    -0.83100
C1169       C  0.42960486  0.84579653  0.18529672     0.01900
C1170       C  0.39852475  0.84028751  0.18731000     0.01900
C1171       C  0.37857680  0.82972919  0.16960306    -0.18600
C1172       C  0.38774567  0.82350697  0.14986113     0.01900
C1173       C  0.41746483  0.82561804  0.14797937     0.01900
C1174       C  0.43831605  0.83761970  0.16562396    -0.18600
H1175       H  0.46142596  0.84040153  0.16406781     0.04000
H1176       H  0.35538979  0.82682831  0.17113376     0.04000
O1177       O  0.21977719  0.52774322  0.00720362    -0.88700
C1178       C  0.24342813  0.97830209  0.04775967     0.87300
Mg1179     Mg  0.18969610  0.50579485  0.97998556     1.58100
O1180       O  0.30581086  0.53199866  0.01482476    -0.88400
O1181       O  0.26544365  0.56613919  0.01686005    -0.75700
C1182       C  0.25936244  0.94237993  0.92899312     0.92400
O1183       O  0.17902613  0.95606075  0.01989990    -0.75600
O1184       O  0.23357231  0.94213597  0.93012034    -0.83100
Mg1185     Mg  0.20250820  0.00407620  0.03693399     1.58000
C1186       C  0.36012505  0.50035071  0.98350933     0.92300
O1187       O  0.22255186  0.54994679  0.05568452    -0.81300
H1188       H  0.33526184  0.57514427  0.00480491    -0.06700
C1189       C  0.25834445  0.94217430  0.99315493     0.87300
O1190       O  0.23332525  0.52701439  0.95772613    -0.75800
O1191       O  0.24545352  0.00218744  0.04026592    -0.88600
O1192       O  0.35254621  0.50570329  0.00202809    -0.81400
C1193       C  0.33330461  0.52400655  0.06682203     0.92400
C1194       C  0.24155312  0.55811379  0.07133928     0.92300
Mg1195     Mg  0.29662774  0.49500332  0.96407495     1.58000
O1196       O  0.27703693  0.94962446  0.94528372    -0.81300
O1197       O  0.32045017  0.54248110  0.98118470    -0.75600
O1198       O  0.31537782  0.53554543  0.06546035    -0.81400
O1199       O  0.15751165  0.00698482  0.03352812    -0.83100
O1200       O  0.18813612  0.96785668  0.93409965    -0.81400
C1201       C  0.32125862  0.55085953  0.00064150     0.86700
O1202       O  0.25361837  0.49692547  0.96100956    -0.88600
O1203       O  0.27805736  0.97010698  0.99306819    -0.88700
O1204       O  0.23319569  0.93152639  0.98236861    -0.75700
Mg1205     Mg  0.28766048  0.54690262  0.04076470     1.58000
O1206       O  0.33529897  0.50815571  0.05143355    -0.83100
H1207       H  0.23622233  0.57090412  0.99625551    -0.06800
O1208       O  0.19334858  0.96557948  0.98610665    -0.88400
H1209       H  0.16521265  0.92252157  0.99689326    -0.06700
H1210       H  0.27247192  0.53413029  0.94183625    -0.06900
C1211       C  0.17860853  0.94699658  0.00062408     0.86700
C1212       C  0.24005060  0.55544603  0.00632259     0.87300
C1213       C  0.25409170  0.51987279  0.95302628     0.87300
H1214       H  0.26243595  0.92650431  0.00277052    -0.06800
O1215       O  0.26234660  0.96918138  0.04227049    -0.75900
Mg1216     Mg  0.21235438  0.95269371  0.95914993     1.58000
H1217       H  0.22470704  0.96449114  0.05886221    -0.06800
C1218       C  0.13803802  0.99668852  0.01812390     0.92300
O1219       O  0.15785641  0.98230973  0.95099886    -0.83100
C1220       C  0.16411190  0.97111599  0.93450646     0.92400
O1221       O  0.26759538  0.55905404  0.06939613    -0.83100
Mg1222     Mg  0.30634227  0.98923253  0.02096778     1.58200
O1223       O  0.14438275  0.98801611  0.00036891    -0.81400
O1224       O  0.34168340  0.49254782  0.96757651    -0.83100
O1225       O  0.27464540  0.80875197  0.99628165    -0.88700
C1226       C  0.27135841  0.74399014  0.95413575     0.87300
Mg1227     Mg  0.29364251  0.81314152  0.02765606     1.58100
O1228       O  0.20002018  0.72531497  0.97947731    -0.88400
O1229       O  0.23088120  0.79931085  0.98152769    -0.75700
C1230       C  0.23439415  0.67320246  0.06759925     0.92400
O1231       O  0.32491316  0.78604100  0.98981341    -0.75600
O1232       O  0.25930129  0.69903769  0.06631516    -0.83100
Mg1233     Mg  0.30257408  0.80861580  0.96989080     1.58000
C1234       C  0.14277317  0.63564151  0.00064944     0.92300
O1235       O  0.28628115  0.83400456  0.94607393    -0.81300
H1236       H  0.16478840  0.73334997  0.98528589    -0.06700
C1237       C  0.24660619  0.68481801  0.00411414     0.87300
O1238       O  0.24480878  0.78249714  0.04197634    -0.75800
O1239       O  0.26464670  0.76346167  0.96076171    -0.88600
O1240       O  0.15488720  0.65144671  0.98374989    -0.81400
C1241       C  0.18740758  0.69852999  0.92523355     0.92400
C1242       C  0.26757432  0.82365428  0.93011091     0.92300
Mg1243     Mg  0.19685982  0.68989090  0.02970684     1.58000
O1244       O  0.21305469  0.66497981  0.05342184    -0.81300
O1245       O  0.17477843  0.71308365  0.00996049    -0.75600
O1246       O  0.20334122  0.72735071  0.92902503    -0.81400
O1247       O  0.34258457  0.85531956  0.98107843    -0.83100
O1248       O  0.29595329  0.77006879  0.07082337    -0.81400
C1249       C  0.17918862  0.72420202  0.99111668     0.86700
O1250       O  0.23491337  0.73446606  0.03898198    -0.88600
O1251       O  0.22448764  0.68971863  0.00313179    -0.88700
O1252       O  0.26964992  0.70065165  0.01635979    -0.75700
Mg1253     Mg  0.22046477  0.76157738  0.95632546     1.58000
O1254       O  0.18388532  0.67888281  0.93938344    -0.83100
H1255       H  0.25309314  0.83236083  0.00439133    -0.06800
O1256       O  0.29931288  0.77385871  0.02015828    -0.88400
H1257       H  0.33528810  0.76678469  0.01491847    -0.06700
H1258       H  0.20565927  0.74549313  0.05370796    -0.06900
C1259       C  0.32056765  0.77540471  0.00877893     0.86700
C1260       C  0.25322354  0.81454109  0.99443590     0.87300
C1261       C  0.22770880  0.75364258  0.04548206     0.87300
H1262       H  0.24689706  0.66749503  0.99369431    -0.06800
O1263       O  0.25358388  0.71513780  0.95737280    -0.75900
Mg1264     Mg  0.27977645  0.73690278  0.04250013     1.58000
H1265       H  0.29331840  0.75177731  0.94587793    -0.06800
C1266       C  0.35592459  0.86285284  0.99942210     0.92300
O1267       O  0.31347407  0.81863009  0.06090729    -0.83100
C1268       C  0.31067627  0.79893118  0.07487442     0.92400
O1269       O  0.24314437  0.79733516  0.93100023    -0.83100
Mg1270     Mg  0.20469178  0.68517494  0.97215194     1.58200
O1271       O  0.34334882  0.84742416  0.01639000    -0.81400
O1272       O  0.15658835  0.64304245  0.01881815    -0.83100
O1273       O  0.03026419  0.72182285  0.99638802    -0.88700
C1274       C  0.47166087  0.72809470  0.95333375     0.87300
Mg1275     Mg  0.01424982  0.70114427  0.02799933     1.58100
O1276       O  0.02826769  0.79821201  0.97767936    -0.88400
O1277       O  0.06653822  0.76170386  0.97920456    -0.75700
C1278       C  0.44893757  0.77720073  0.07133500     0.92400
O1279       O  0.45735574  0.67762267  0.99112851    -0.75600
O1280       O  0.44904854  0.75166724  0.07305998    -0.83100
Mg1281     Mg  0.50196666  0.69471549  0.97005155     1.58000
C1282       C  0.99800526  0.85790301  0.00033674     0.92300
O1283       O  0.04337587  0.70700568  0.94607456    -0.81300
H1284       H  0.07268734  0.82962294  0.98410819    -0.06700
C1285       C  0.44135100  0.75729357  0.00777837     0.87300
O1286       O  0.03701098  0.74960696  0.04375322    -0.75800
O1287       O  0.49774884  0.73368946  0.95936096    -0.88600
O1288       O  0.99959308  0.84462887  0.98329949    -0.81400
C1289       C  0.01415222  0.81440931  0.92460271     0.92400
C1290       C  0.05213794  0.72320403  0.92886356     0.92300
Mg1291     Mg  0.99881761  0.80428496  0.03018449     1.58000
O1292       O  0.45805326  0.79305627  0.05403870    -0.81300
O1293       O  0.04284860  0.82133321  0.00905090    -0.75600
O1294       O  0.02742645  0.79811405  0.92654903    -0.81400
O1295       O  0.50695927  0.65369130  0.98129505    -0.83100
O1296       O  0.47672711  0.70500502  0.07536113    -0.81400
C1297       C  0.04881200  0.81701829  0.98983096     0.86700
O1298       O  0.00270017  0.76495903  0.04080613    -0.88600
O1299       O  0.46917703  0.77609717  0.00453913    -0.88700
O1300       O  0.43303399  0.73669151  0.02224036    -0.75700
Mg1301     Mg  0.04167463  0.77550999  0.95365317     1.58000
O1302       O  0.99696411  0.81505188  0.93951453    -0.83100
H1303       H  0.07553874  0.74002334  0.00348161    -0.06800
O1304       O  0.47071267  0.70014546  0.02284071    -0.88400
H1305       H  0.42641474  0.66957644  0.01534198    -0.06700
H1306       H  0.04360353  0.79055087  0.05571505    -0.06900
C1307       C  0.45053655  0.68194390  0.01017485     0.86700
C1308       C  0.05808558  0.74093499  0.99356488     0.87300
C1309       C  0.02820314  0.76929044  0.04726202     0.87300
H1310       H  0.42377229  0.75823498  0.99803350    -0.06800
O1311       O  0.46130409  0.74627216  0.95766030    -0.75900
Mg1312     Mg  0.45890856  0.72393177  0.04749717     1.58000
H1313       H  0.45682170  0.70659601  0.94494311    -0.06800
C1314       C  0.50049806  0.63994061  0.99937085     0.92300
O1315       O  0.49632317  0.67804240  0.06010623    -0.83100
C1316       C  0.48351276  0.68332851  0.07604443     0.92400
O1317       O  0.05200868  0.74875731  0.92776699    -0.83100
Mg1318     Mg  0.48293525  0.79480686  0.97253247     1.58200
O1319       O  0.49537175  0.65146476  0.01606638    -0.81400
O1320       O  0.99459469  0.84571965  0.01883380    -0.83100
O1321       O  0.13331648  0.51972423  0.67003308    -0.88700
C1322       C  0.19749522  0.59075082  0.70808049     0.87300
Mg1323     Mg  0.14286143  0.51334400  0.63719282     1.58100
O1324       O  0.13766058  0.60137868  0.68655058    -0.88400
O1325       O  0.09932695  0.52750185  0.68747977    -0.75700
C1326       C  0.21232812  0.65390060  0.59403903     0.92400
O1327       O  0.20905777  0.54881885  0.66933823    -0.75600
O1328       O  0.21406676  0.62924470  0.59339445    -0.83100
Mg1329     Mg  0.16905731  0.52622531  0.69343979     1.58000
C1330       C  0.16324183  0.68996581  0.66287894     0.92300
O1331       O  0.13684582  0.50197939  0.72245137    -0.81300
H1332       H  0.09253447  0.58895826  0.68410826    -0.06700
C1333       C  0.22081433  0.64384332  0.65639523     0.87300
O1334       O  0.12074378  0.54084362  0.62392572    -0.75800
O1335       O  0.17210025  0.56947107  0.70178994    -0.88600
O1336       O  0.16271757  0.67626154  0.68015806    -0.81400
C1337       C  0.15315922  0.62919898  0.73863688     0.92400
C1338       C  0.12435428  0.50925533  0.73770593     0.92300
Mg1339     Mg  0.16055944  0.63316032  0.63458973     1.58000
O1340       O  0.19733272  0.65837781  0.60897086    -0.81300
O1341       O  0.11825691  0.60862331  0.65721298    -0.75600
O1342       O  0.15296870  0.60366915  0.73698921    -0.81400
O1343       O  0.16513542  0.98071780  0.68349229    -0.83100
O1344       O  0.18138373  0.55432575  0.59011980    -0.81400
C1345       C  0.11523520  0.59935181  0.67649720     0.86700
O1346       O  0.15685021  0.58974166  0.62510995    -0.88600
O1347       O  0.19383250  0.63858413  0.65925348    -0.88700
O1348       O  0.22707558  0.62825821  0.64306379    -0.75700
Mg1349     Mg  0.12876426  0.56724402  0.71072070     1.58000
O1350       O  0.16273570  0.64845467  0.72332617    -0.83100
H1351       H  0.08731864  0.49292759  0.66565433    -0.06800
O1352       O  0.18809444  0.55460138  0.64034647    -0.88400
H1353       H  0.23269634  0.56497749  0.64130784    -0.06700
H1354       H  0.11478647  0.57560767  0.61234157    -0.06900
C1355       C  0.21070047  0.55606797  0.64973034     0.86700
C1356       C  0.10596962  0.51222749  0.67417021     0.87300
C1357       C  0.13043907  0.56917925  0.61986286     0.87300
H1358       H  0.23944659  0.66153910  0.66596992    -0.06800
O1359       O  0.20497604  0.61895125  0.70551835    -0.75900
Mg1360     Mg  0.20029235  0.59058510  0.61761075     1.58000
H1361       H  0.21375699  0.58528234  0.71576602    -0.06800
C1362       C  0.16254758  0.96820013  0.66512927     0.92300
O1363       O  0.15404989  0.50645832  0.60298534    -0.83100
C1364       C  0.16857302  0.52495267  0.58766414     0.92400
O1365       O  0.11981114  0.53210765  0.73612987    -0.83100
Mg1366     Mg  0.18057505  0.64413180  0.69112356     1.58200
O1367       O  0.15841094  0.47927908  0.64782080    -0.81400
O1368       O  0.16484325  0.67954764  0.64443584    -0.83100
C1369       C  0.10949170  0.67312351  0.85067994     0.01900
C1370       C  0.08203597  0.67559864  0.85095885     0.01900
C1371       C  0.06329104  0.66702458  0.83223080    -0.18600
C1372       C  0.07173956  0.65673966  0.81338432     0.01900
C1373       C  0.10033618  0.65635793  0.81322005     0.01900
C1374       C  0.11802096  0.66354966  0.83197816    -0.18600
H1375       H  0.13919976  0.66200639  0.83194694     0.04000
H1376       H  0.04200024  0.66828359  0.83233518     0.04000
C1377       C  0.08884825  0.93072104  0.85610004     0.01900
C1378       C  0.05791903  0.90517633  0.85512452     0.01900
C1379       C  0.03960892  0.90118518  0.83679956    -0.18600
C1380       C  0.05228126  0.91944589  0.81825761     0.01900
C1381       C  0.08448395  0.94256460  0.81831555     0.01900
C1382       C  0.10203561  0.94818443  0.83734410    -0.18600
H1383       H  0.12630578  0.96634085  0.83759532     0.04000
H1384       H  0.01539856  0.88287923  0.83676946     0.04000
O1385       O  0.47001989  0.60967366  0.67015260    -0.88700
C1386       C  0.40559760  0.59960923  0.71556292     0.87300
Mg1387     Mg  0.47145431  0.62688848  0.63827352     1.58100
O1388       O  0.39337868  0.53144163  0.68878719    -0.88400
O1389       O  0.46804754  0.56920734  0.68503069    -0.75700
C1390       C  0.32682298  0.55441814  0.60142612     0.92400
O1391       O  0.43941489  0.65349232  0.67692430    -0.75600
O1392       O  0.35181716  0.58055036  0.59998133    -0.83100
Mg1393     Mg  0.46759733  0.63722304  0.69661096     1.58000
C1394       C  0.30231706  0.96981906  0.66870265     0.92300
O1395       O  0.49698401  0.62880104  0.72179475    -0.81300
H1396       H  0.40716362  0.50131540  0.68011049    -0.06700
C1397       C  0.34333826  0.57080276  0.66515246     0.87300
O1398       O  0.44328526  0.57841885  0.62382979    -0.75800
O1399       O  0.42650402  0.59621125  0.70736053    -0.88600
O1400       O  0.31779933  0.98238466  0.68563791    -0.81400
C1401       C  0.36967383  0.51540520  0.74307622     0.92400
C1402       C  0.49337694  0.60925410  0.73635806     0.92300
Mg1403     Mg  0.35302719  0.52561096  0.63886042     1.58000
O1404       O  0.32112581  0.53726911  0.61797599    -0.81300
O1405       O  0.38266547  0.50895326  0.65710780    -0.75600
O1406       O  0.39812788  0.53629180  0.74070849    -0.81400
O1407       O  0.01155303  0.67990334  0.68430732    -0.83100
O1408       O  0.42474866  0.62845129  0.59567707    -0.81400
C1409       C  0.39479321  0.51331546  0.67573204     0.86700
O1410       O  0.39438196  0.56554987  0.62773301    -0.88600
O1411       O  0.35214103  0.55157674  0.66629264    -0.88700
O1412       O  0.35493898  0.59251725  0.65142582    -0.75700
Mg1413     Mg  0.43126884  0.55536400  0.71154649     1.58000
O1414       O  0.34949006  0.50935318  0.72854257    -0.83100
H1415       H  0.49846312  0.59381126  0.66121618    -0.06800
O1416       O  0.42964994  0.62989548  0.64588137    -0.88400
H1417       H  0.41710488  0.66150556  0.65262629    -0.06700
H1418       H  0.40734847  0.53891974  0.61164015    -0.06900
C1419       C  0.42856245  0.64904230  0.65800315     0.86700
C1420       C  0.47995367  0.59141435  0.67177723     0.87300
C1421       C  0.41451818  0.56028365  0.62035711     0.87300
H1422       H  0.32574066  0.56937205  0.67622465    -0.06800
O1423       O  0.37703678  0.57956107  0.71301602    -0.75900
Mg1424     Mg  0.39113837  0.60684986  0.62401344     1.58000
H1425       H  0.41172609  0.62047261  0.72463802    -0.06800
C1426       C  0.02119912  0.69044367  0.66544779     0.92300
O1427       O  0.47393196  0.64610853  0.60527925    -0.83100
C1428       C  0.45390637  0.64445286  0.59183799     0.92400
O1429       O  0.47079431  0.58151618  0.73538106    -0.83100
Mg1430     Mg  0.35080416  0.53147414  0.69711690     1.58200
O1431       O  0.50713431  0.67587835  0.64853712    -0.81400
O1432       O  0.30983529  0.98295218  0.65045195    -0.83100
O1433       O  0.35950328  0.80816279  0.65950891    -0.88700
C1434       C  0.43259968  0.85930272  0.61889850     0.87300
Mg1435     Mg  0.35023511  0.82669337  0.68773659     1.58100
O1436       O  0.43879811  0.80365147  0.65014990    -0.88400
O1437       O  0.36484362  0.76962232  0.64734890    -0.75700
C1438       C  0.48629356  0.89680043  0.73671493     0.92400
O1439       O  0.38874750  0.88124557  0.64796916    -0.75600
O1440       O  0.46165050  0.89872216  0.73485086    -0.83100
Mg1441     Mg  0.36547012  0.83398350  0.63069377     1.58000
C1442       C  0.02403543  0.83132950  0.68209097     0.92300
O1443       O  0.33928507  0.78880292  0.61220444    -0.81300
H1444       H  0.42207187  0.76032746  0.66087777    -0.06700
C1445       C  0.48338497  0.89356220  0.67139289     0.87300
O1446       O  0.37502230  0.80799575  0.70899406    -0.75800
O1447       O  0.41028583  0.83630997  0.62707080    -0.88600
O1448       O  0.51179560  0.82711462  0.66342991    -0.81400
C1449       C  0.47112777  0.80932531  0.59796984     0.92400
C1450       C  0.34903173  0.78316963  0.59485787     0.92300
Mg1451     Mg  0.46820158  0.84086395  0.70169755     1.58000
O1452       O  0.49567976  0.88603130  0.72155803    -0.81300
O1453       O  0.44206890  0.79352779  0.68403217    -0.75600
O1454       O  0.44534048  0.80924887  0.59812322    -0.81400
O1455       O  0.31801976  0.83079860  0.63421165    -0.83100
O1456       O  0.38849551  0.87324789  0.73187295    -0.81400
C1457       C  0.43392772  0.78481869  0.66466875     0.86700
O1458       O  0.42473408  0.84089995  0.70577129    -0.88600
O1459       O  0.47619566  0.86590115  0.67210797    -0.88700
O1460       O  0.46857343  0.90407993  0.68213035    -0.75700
Mg1461     Mg  0.40647365  0.79183055  0.62353202     1.58000
O1462       O  0.48950551  0.81960236  0.61406094    -0.83100
H1463       H  0.33142628  0.76435385  0.66888370    -0.06800
O1464       O  0.39332139  0.87017740  0.68127878    -0.88400
H1465       H  0.40621284  0.91336750  0.67192273    -0.06700
H1466       H  0.40852595  0.80437636  0.72540645    -0.06900
C1467       C  0.39627709  0.88924221  0.66744858     0.86700
C1468       C  0.35098524  0.78017873  0.65904704     0.87300
C1469       C  0.40320136  0.81749257  0.71404306     0.87300
H1470       H  0.50252474  0.90915959  0.66117664    -0.06800
O1471       O  0.46059458  0.86606877  0.62277106    -0.75900
Mg1472     Mg  0.42760083  0.88540403  0.70667618     1.58000
H1473       H  0.42826509  0.87382522  0.60819783    -0.06800
C1474       C  0.30520530  0.83493483  0.65060986     0.92300
O1475       O  0.34079298  0.84619074  0.71784895    -0.83100
C1476       C  0.35893637  0.86184368  0.73312713     0.92400
O1477       O  0.37435965  0.78246105  0.59461536    -0.83100
Mg1478     Mg  0.48323582  0.84417731  0.64392624     1.58200
O1479       O  0.31700441  0.83873674  0.66935986    -0.81400
O1480       O  0.01393369  0.83977879  0.69812260    -0.83100
C1481       C  0.29679304  0.88517738  0.84739345     0.01900
C1482       C  0.30129100  0.91539372  0.84920568     0.01900
C1483       C  0.31473259  0.93613208  0.83229448    -0.18600
C1484       C  0.32215775  0.92714640  0.81276821     0.01900
C1485       C  0.31614242  0.89599184  0.81031644     0.01900
C1486       C  0.30288052  0.87533146  0.82773998    -0.18600
H1487       H  0.29852041  0.85176762  0.82633638     0.04000
H1488       H  0.31912218  0.95964866  0.83431413     0.04000
C1489       C  0.00589445  0.76380186  0.48060566     0.01900
C1490       C  0.00333095  0.73395216  0.48053085     0.01900
C1491       C  0.99393980  0.71624782  0.49927022    -0.18600
C1492       C  0.48827488  0.72718968  0.51849156     0.01900
C1493       C  0.49226160  0.75761294  0.51924768     0.01900
C1494       C  0.00043611  0.77509426  0.50008742    -0.18600
H1495       H  0.00273701  0.79794307  0.50035095     0.04000
H1496       H  0.99155309  0.69332701  0.49899190     0.04000
C1497       C  0.25761759  0.77788929  0.48699657     0.01900
C1498       C  0.22853136  0.74998756  0.48650983     0.01900
C1499       C  0.21989435  0.72955528  0.50400807    -0.18600
C1500       C  0.24049126  0.73582057  0.52133414     0.01900
C1501       C  0.27011033  0.76329819  0.52122693     0.01900
C1502       C  0.27798168  0.78417903  0.50423864    -0.18600
H1503       H  0.30060985  0.80516012  0.50409990     0.04000
H1504       H  0.19759922  0.70822601  0.50377707     0.04000
C1505       C  0.23376170  0.98736516  0.47942777     0.01900
C1506       C  0.26620318  0.99918566  0.48301403     0.01900
C1507       C  0.27866495  0.01125480  0.50347106    -0.18600
C1508       C  0.25987410  0.51187488  0.52035080     0.01900
C1509       C  0.22776121  0.50119820  0.51641556     0.01900
C1510       C  0.21512269  0.98848701  0.49622188    -0.18600
H1511       H  0.19048580  0.97985545  0.49337836     0.04000
H1512       H  0.30328079  0.01992689  0.50638695     0.04000
O1513       O  0.00920116  0.95853460  0.01842965    -0.88700
C1514       C  0.06082475  0.52289698  0.97269790     0.87300
Mg1515     Mg  0.46069902  0.92459871  0.01389124     1.58100
O1516       O  0.03681663  0.55141717  0.01680651    -0.88400
O1517       O  0.03864614  0.49473856  0.04131282    -0.75700
C1518       C  0.38996126  0.00054606  0.98165872     0.92400
O1519       O  0.00268104  0.95024208  0.96683645    -0.75600
O1520       O  0.38951792  0.97519763  0.97755396    -0.83100
Mg1521     Mg  0.04072104  0.96285804  0.99242790     1.58000
C1522       C  0.99888796  0.60982889  0.00095155     0.92300
O1523       O  0.08375385  0.97311353  0.01261343    -0.81300
H1524       H  0.03725486  0.56073011  0.04815343    -0.06700
C1525       C  0.48067097  0.53071358  0.96300249     0.87300
O1526       O  0.44403929  0.95383823  0.03230338    -0.75800
O1527       O  0.05527271  0.51139720  0.99083837    -0.88600
O1528       O  0.02370698  0.60854042  0.99750968    -0.81400
C1529       C  0.11191945  0.60784508  0.99924880     0.92400
C1530       C  0.10832651  0.99705818  0.01926883     0.92300
Mg1531     Mg  0.45798147  0.53518517  0.00777913     1.58000
O1532       O  0.41475897  0.52487488  0.98775484    -0.81300
O1533       O  0.49613251  0.54809728  0.03323795    -0.75600
O1534       O  0.10876875  0.58297469  0.00727181    -0.81400
O1535       O  0.02600950  0.91205193  0.99542845    -0.83100
O1536       O  0.38997031  0.91548745  0.99327276    -0.81400
C1537       C  0.02426345  0.55402976  0.03326997     0.86700
O1538       O  0.44354855  0.98669869  0.00940409    -0.88600
O1539       O  0.48930217  0.53924110  0.98161556    -0.88700
O1540       O  0.45957471  0.00324713  0.95879203    -0.75700
Mg1541     Mg  0.07144600  0.53697697  0.02098776     1.58000
O1542       O  0.08916781  0.60966081  0.99122304    -0.83100
H1543       H  0.00606254  0.95097224  0.05012154    -0.06800
O1544       O  0.46185728  0.94674057  0.98318701    -0.88400
H1545       H  0.46172036  0.93793390  0.95177161    -0.06700
H1546       H  0.42897381  0.98399786  0.03977576    -0.06900
C1547       C  0.47456566  0.94438761  0.96671625     0.86700
C1548       C  0.01750021  0.96705173  0.03709375     0.87300
C1549       C  0.43809453  0.97511591  0.02751582     0.87300
H1550       H  0.49190011  0.54675876  0.94992385    -0.06800
O1551       O  0.05470865  0.54400012  0.96774982    -0.75900
Mg1552     Mg  0.42714729  0.96110666  0.97933397     1.58000
H1553       H  0.07010194  0.51404266  0.96055579    -0.06800
C1554       C  0.99964555  0.88804873  0.99866048     0.92300
O1555       O  0.40954430  0.88830091  0.00856164    -0.83100
C1556       C  0.38679323  0.89044820  0.00092978     0.92400
O1557       O  0.10902394  0.52254548  0.02338719    -0.83100
Mg1558     Mg  0.03791367  0.57322864  0.98592278     1.58200
O1559       O  0.47471341  0.88929148  0.00170056    -0.81400
O1560       O  0.47265363  0.58591164  0.00468690    -0.83100
O1561       O  0.37160997  0.65263434  0.31520154    -0.88700
C1562       C  0.31244719  0.61047890  0.36656963     0.87300
Mg1563     Mg  0.40920806  0.70037480  0.31467116     1.58100
O1564       O  0.28128342  0.63013558  0.32215135    -0.88400
O1565       O  0.33162722  0.61935531  0.29635772    -0.75700
C1566       C  0.34496098  0.78192770  0.35001773     0.92400
O1567       O  0.38785974  0.66738568  0.36556417    -0.75600
O1568       O  0.37141435  0.78324259  0.34967177    -0.83100
Mg1569     Mg  0.36974744  0.62534753  0.34296351     1.58000
C1570       C  0.22972020  0.67396694  0.33642590     0.92300
O1571       O  0.35445234  0.57936296  0.32473045    -0.81300
H1572       H  0.27068469  0.62756223  0.29091544    -0.06700
C1573       C  0.31445526  0.69413717  0.37188706     0.87300
O1574       O  0.37939101  0.71687683  0.29708529    -0.75800
O1575       O  0.32195780  0.61352199  0.34787392    -0.88600
O1576       O  0.22986636  0.64887499  0.33955739    -0.81400
C1577       C  0.22264850  0.56070685  0.34538468     0.92400
C1578       C  0.32880356  0.55401103  0.32220125     0.92300
Mg1579     Mg  0.30447269  0.71165309  0.32771246     1.58000
O1580       O  0.31942792  0.75627115  0.34809337    -0.81300
O1581       O  0.28698747  0.67035230  0.30406162    -0.75600
O1582       O  0.24716483  0.56033044  0.33942678    -0.81400
O1583       O  0.41995585  0.63742902  0.33752498    -0.83100
O1584       O  0.42763419  0.77560855  0.32996849    -0.81400
C1585       C  0.27903121  0.64181456  0.30521217     0.86700
O1586       O  0.35203422  0.72343803  0.32203016    -0.88600
O1587       O  0.30207660  0.68287366  0.35440869    -0.88700
O1588       O  0.34284965  0.71552507  0.37305097    -0.75700
Mg1589     Mg  0.29162578  0.59268413  0.32051689     1.58000
O1590       O  0.22300059  0.58560961  0.35059175    -0.83100
H1591       H  0.37405704  0.64857175  0.28333551    -0.06800
O1592       O  0.39390649  0.70681202  0.34643534    -0.88400
H1593       H  0.40593860  0.71103489  0.37744255    -0.06700
H1594       H  0.35022620  0.73374133  0.29121582    -0.06900
C1595       C  0.39672577  0.69598123  0.36357306     0.86700
C1596       C  0.35997710  0.64057681  0.29774738     0.87300
C1597       C  0.36028152  0.72545391  0.30307049     0.87300
H1598       H  0.30095459  0.68548752  0.38649068    -0.06800
O1599       O  0.29223884  0.61790051  0.37198150    -0.75900
Mg1600     Mg  0.38296405  0.74363406  0.34894088     1.58000
H1601       H  0.32201108  0.60195818  0.37865333    -0.06800
C1602       C  0.44444510  0.66217433  0.33193867     0.92300
O1603       O  0.44952292  0.75008607  0.31493240    -0.83100
C1604       C  0.45080304  0.77502367  0.32128107     0.92400
O1605       O  0.30265840  0.55311751  0.32087526    -0.83100
Mg1606     Mg  0.26378064  0.63510980  0.35318924     1.58200
O1607       O  0.44409071  0.68650457  0.32635279    -0.81400
O1608       O  0.25451254  0.69972341  0.33350453    -0.83100
O1609       O  0.15124579  0.86773682  0.68446124    -0.88700
C1610       C  0.10110260  0.80476465  0.63757703     0.87300
Mg1611     Mg  0.19927908  0.90292051  0.68123640     1.58100
O1612       O  0.12487446  0.77650501  0.68147513    -0.88400
O1613       O  0.12032522  0.83142866  0.70654155    -0.75700
C1614       C  0.27519103  0.83417896  0.64859845     0.92400
O1615       O  0.15889166  0.87654827  0.63313780    -0.75600
O1616       O  0.27543538  0.85961445  0.64637103    -0.83100
Mg1617     Mg  0.12043962  0.86375309  0.65851911     1.58000
C1618       C  0.16423280  0.71987329  0.66443268     0.92300
O1619       O  0.07861598  0.85366071  0.68055841    -0.81300
H1620       H  0.12470636  0.76661882  0.71262551    -0.06700
C1621       C  0.18406495  0.80126943  0.62813477     0.87300
O1622       O  0.21599322  0.87406300  0.69973052    -0.75800
O1623       O  0.10609295  0.81562428  0.65595043    -0.88600
O1624       O  0.13894842  0.72065736  0.66268219    -0.81400
C1625       C  0.05074820  0.71946332  0.66321403     0.92400
C1626       C  0.05258219  0.82911225  0.68393847     0.92300
Mg1627     Mg  0.20525522  0.79504070  0.67212554     1.58000
O1628       O  0.24992336  0.80849477  0.65160261    -0.81300
O1629       O  0.16597352  0.78016162  0.69740241    -0.75600
O1630       O  0.05236347  0.74396738  0.67073276    -0.81400
O1631       O  0.13527310  0.91431805  0.66122500    -0.83100
O1632       O  0.27255786  0.91615650  0.66278233    -0.81400
C1633       C  0.13768289  0.77389909  0.69772433     0.86700
O1634       O  0.21876742  0.84317888  0.67595395    -0.88600
O1635       O  0.17422789  0.79153889  0.64637473    -0.88700
O1636       O  0.20580321  0.82896569  0.62514654    -0.75700
Mg1637     Mg  0.08890369  0.78947521  0.68529716     1.58000
O1638       O  0.07436655  0.71874622  0.65554424    -0.83100
H1639       H  0.15258367  0.87474688  0.71622345    -0.06800
O1640       O  0.20037583  0.88280361  0.65016566    -0.88400
H1641       H  0.20061448  0.89033822  0.61859237    -0.06700
H1642       H  0.23173250  0.84431967  0.70653920    -0.06900
C1643       C  0.18748369  0.88390418  0.63345226     0.86700
C1644       C  0.14185516  0.85893186  0.70290437     0.87300
C1645       C  0.22290487  0.85356325  0.69444170     0.87300
H1646       H  0.17379631  0.78605984  0.61445603    -0.06800
O1647       O  0.10808786  0.78438957  0.63212133    -0.75900
Mg1648     Mg  0.23656381  0.87083547  0.64704998     1.58000
H1649       H  0.09168130  0.81364589  0.62569071    -0.06800
C1650       C  0.16152026  0.93852064  0.66426166     0.92300
O1651       O  0.24925349  0.94044434  0.67724733    -0.83100
C1652       C  0.27337773  0.94030843  0.67031539     0.92400
O1653       O  0.05056593  0.80272572  0.68607465    -0.83100
Mg1654     Mg  0.12532894  0.75593967  0.65035115     1.58200
O1655       O  0.18623517  0.93764180  0.66828196    -0.81400
O1656       O  0.19068806  0.74425960  0.66685332    -0.83100
C1657       C  0.35530175  0.86369311  0.77323910    -0.02200
C1658       C  0.34557691  0.86774997  0.75282812     0.07500
C1659       C  0.32376634  0.87826457  0.75140349    -0.02300
C1660       C  0.31239836  0.88519447  0.77024230    -0.02300
C1661       C  0.32493181  0.88468259  0.79053162     0.07600
C1662       C  0.34579335  0.87284588  0.79194516    -0.02500
Br1663     Br  0.36312795  0.87025167  0.81920979    -0.01000
Br1664     Br  0.38069641  0.84421039  0.77570900    -0.01100
Br1665     Br  0.27760864  0.89248099  0.76818609    -0.01100
Br1666     Br  0.31053427  0.88510567  0.72371738    -0.01100
C1667       C  0.32141347  0.80094212  0.57008667    -0.02200
C1668       C  0.33128889  0.77932864  0.57483767     0.07500
C1669       C  0.32502899  0.75540730  0.56001223    -0.02300
C1670       C  0.30767729  0.75231906  0.54134475    -0.02300
C1671       C  0.29334334  0.77055443  0.53867198     0.07600
C1672       C  0.30155847  0.79595585  0.55255909    -0.02500
Br1673     Br  0.28656551  0.82467977  0.54742017    -0.01000
Br1674     Br  0.33759946  0.83929596  0.58601888    -0.01100
Br1675     Br  0.30725224  0.72627318  0.51820124    -0.01100
Br1676     Br  0.33906780  0.72614088  0.56531565    -0.01100
C1677       C  0.01200850  0.79932561  0.54845974    -0.02200
C1678       C  0.48753983  0.77143586  0.53951619     0.07500
C1679       C  0.45826173  0.75695635  0.54991283    -0.02300
C1680       C  0.45445548  0.76772172  0.57001907    -0.02300
C1681       C  0.47831836  0.79596372  0.57866078     0.07600
C1682       C  0.50720867  0.81172209  0.56775932    -0.02500
Br1683     Br  0.03984341  0.85083655  0.57874736    -0.01000
Br1684     Br  0.05211915  0.82130909  0.53423955    -0.01100
Br1685     Br  0.41695304  0.74205509  0.58638209    -0.01100
Br1686     Br  0.42178540  0.72542898  0.53534454    -0.01100
C1687       C  0.31869637  0.96601767  0.78865330    -0.02200
C1688       C  0.33540072  0.95118087  0.79555843     0.07500
C1689       C  0.36546891  0.96114957  0.78709574    -0.02300
C1690       C  0.37655888  0.98186947  0.76968974    -0.02300
C1691       C  0.35971016  0.99630435  0.76264241     0.07600
C1692       C  0.33139054  0.98918363  0.77281715    -0.02500
Br1693     Br  0.31005466  0.01155018  0.76525327    -0.01000
Br1694     Br  0.27774958  0.95438645  0.80010532    -0.01100
Br1695     Br  0.41390655  0.48820339  0.75493231    -0.01100
Br1696     Br  0.39312452  0.94940994  0.80059160    -0.01100
C1697       C  0.29396039  0.51153033  0.57528713    -0.02200
C1698       C  0.30532424  0.54244503  0.58249769     0.07500
C1699       C  0.30021829  0.56280460  0.56951755    -0.02300
C1700       C  0.28585837  0.55307130  0.54916540    -0.02300
C1701       C  0.27419751  0.52220993  0.54216463     0.07600
C1702       C  0.27867813  0.50165313  0.55527418    -0.02500
Br1703     Br  0.26687633  0.96071094  0.54484083    -0.01000
Br1704     Br  0.30155746  0.48277071  0.59150748    -0.01100
Br1705     Br  0.28627563  0.58331843  0.52977268    -0.01100
Br1706     Br  0.31234418  0.60407849  0.57962802    -0.01100
C1707       C  0.44562204  0.65505945  0.55350263    -0.02200
C1708       C  0.46458330  0.66407857  0.57213434     0.07500
C1709       C  0.49227943  0.69358764  0.57248525    -0.02300
C1710       C  0.50038292  0.71344267  0.55464710    -0.02300
C1711       C  0.47957886  0.70594962  0.53730964     0.07600
C1712       C  0.45262364  0.67609294  0.53645989    -0.02500
Br1713     Br  0.42513379  0.66322054  0.51171024    -0.01000
Br1714     Br  0.41067560  0.61332691  0.55047320    -0.01100
Br1715     Br  0.04175907  0.74915299  0.55299072    -0.01100
Br1716     Br  0.01912535  0.70898132  0.59750331    -0.01100
C1717       C  0.01239222  0.93131166  0.76913411    -0.02200
C1718       C  0.00233683  0.90322613  0.75786462     0.07500
C1719       C  0.00495730  0.87914154  0.76776309    -0.02300
C1720       C  0.01940528  0.88372279  0.78795118    -0.02300
C1721       C  0.03219585  0.91281774  0.79851622     0.07600
C1722       C  0.02677918  0.93588033  0.78952170    -0.02500
Br1723     Br  0.03613612  0.97244142  0.80597624    -0.01000
Br1724     Br  0.50712482  0.96375883  0.75647529    -0.01100
Br1725     Br  0.02086508  0.84918940  0.80061446    -0.01100
Br1726     Br  0.98700883  0.83865965  0.75419603    -0.01100
C1727       C  0.05953901  0.66210417  0.77476318    -0.02200
C1728       C  0.05039014  0.64564025  0.79424653     0.07500
C1729       C  0.02188265  0.61737607  0.79498283    -0.02300
C1730       C  0.00373125  0.60485549  0.77617601    -0.02300
C1731       C  0.01425448  0.62023524  0.75594888     0.07600
C1732       C  0.04298974  0.64882464  0.75556251    -0.02500
Br1733     Br  0.06171580  0.67011880  0.72892014    -0.01000
Br1734     Br  0.09244461  0.70474762  0.77492796    -0.01100
Br1735     Br  0.46397604  0.56707809  0.77944898    -0.01100
Br1736     Br  0.00712967  0.59579251  0.82206481    -0.01100
C1737       C  0.10716658  0.96027943  0.75953742    -0.02200
C1738       C  0.11694619  0.99225784  0.75855540     0.07500
C1739       C  0.12174287  0.50901242  0.77815678    -0.02300
C1740       C  0.11237952  0.99316874  0.79785537    -0.02300
C1741       C  0.09995904  0.96074840  0.79848208     0.07600
C1742       C  0.10069589  0.94526405  0.77959918    -0.02500
Br1743     Br  0.09590311  0.90444297  0.78156727    -0.01000
Br1744     Br  0.10107576  0.93605617  0.73375760    -0.01100
Br1745     Br  0.11569297  0.51632071  0.82376633    -0.01100
Br1746     Br  0.14372734  0.55394634  0.77878189    -0.01100
C1747       C  0.15545966  0.66584376  0.76724814    -0.02200
C1748       C  0.14049509  0.63587491  0.75819353     0.07500
C1749       C  0.11194778  0.61266984  0.76703520    -0.02300
C1750       C  0.09985179  0.61882349  0.78570057    -0.02300
C1751       C  0.11340519  0.64929465  0.79379195     0.07600
C1752       C  0.14150868  0.67275805  0.78452939    -0.02500
Br1753     Br  0.16169115  0.71465003  0.79540633    -0.01000
Br1754     Br  0.19565585  0.69742340  0.75654085    -0.01100
Br1755     Br  0.06722076  0.58463859  0.80134147    -0.01100
Br1756     Br  0.08717975  0.57328357  0.75264317    -0.01100
C1757       C  0.19223367  0.98076016  0.54877790    -0.02200
C1758       C  0.20689141  0.50360457  0.53287073     0.07500
C1759       C  0.19957106  0.52765468  0.53187110    -0.02300
C1760       C  0.18198226  0.53120067  0.54837889    -0.02300
C1761       C  0.17426765  0.51282919  0.56706653     0.07600
C1762       C  0.17747235  0.48593690  0.56650924    -0.02500
Br1763     Br  0.16229376  0.95587762  0.58947752    -0.01000
Br1764     Br  0.19013218  0.94124413  0.54530856    -0.01100
Br1765     Br  0.16625113  0.55952737  0.54467512    -0.01100
Br1766     Br  0.21301016  0.55582308  0.50798485    -0.01100
C1767       C  0.22697698  0.72278749  0.56004059    -0.02200
C1768       C  0.23135852  0.71363608  0.53950919     0.07500
C1769       C  0.23125504  0.68541513  0.53701055    -0.02300
C1770       C  0.22949344  0.66778007  0.55517339    -0.02300
C1771       C  0.22459760  0.67669455  0.57595399     0.07600
C1772       C  0.22552178  0.70559126  0.57826935    -0.02500
Br1773     Br  0.22786170  0.72402456  0.60624486    -0.01000
Br1774     Br  0.21898272  0.75686745  0.56289231    -0.01100
Br1775     Br  0.23642807  0.63311971  0.55084482    -0.01100
Br1776     Br  0.23128241  0.66954952  0.50856486    -0.01100
C1777       C  0.04521396  0.85306405  0.86984502    -0.02200
C1778       C  0.04462429  0.88103033  0.87226178     0.07500
C1779       C  0.02959496  0.88488023  0.89023272    -0.02300
C1780       C  0.01864414  0.86290814  0.90702653    -0.03500
C1781       C  0.02134607  0.83557681  0.90553348     0.07600
C1782       C  0.03379179  0.83053569  0.88627030    -0.02500
Br1783     Br  0.03477076  0.79250859  0.88140743    -0.01000
Br1784     Br  0.06083343  0.84480350  0.84357520    -0.01100
Br1785     Br  0.50160844  0.87269991  0.93207844    -0.01100
Br1786     Br  0.02245683  0.91968880  0.89116845    -0.01100
C1787       C  0.08222818  0.73150794  0.89368287    -0.02200
C1788       C  0.06079795  0.71102625  0.90924020     0.07500
C1789       C  0.04467667  0.67867140  0.90449391    -0.02300
C1790       C  0.05053065  0.66735531  0.88510681    -0.02300
C1791       C  0.07321831  0.68771173  0.87040577     0.07600
C1792       C  0.08745907  0.71988780  0.87421036    -0.02500
Br1793     Br  0.11071176  0.74819167  0.85135357    -0.01000
Br1794     Br  0.10577147  0.77571236  0.89882557    -0.01100
Br1795     Br  0.02461164  0.62423466  0.87755840    -0.01100
Br1796     Br  0.51267245  0.64899765  0.92349532    -0.01100
C1797       C  0.30672945  0.86152472  0.90318563    -0.02200
C1798       C  0.27517299  0.84085142  0.90919288     0.07500
C1799       C  0.25144269  0.83244903  0.89333366    -0.02300
C1800       C  0.25938387  0.84312600  0.87205684    -0.02300
C1801       C  0.29000143  0.86591576  0.86703677     0.07600
C1802       C  0.31381724  0.87400533  0.88227891    -0.02500
Br1803     Br  0.35674590  0.90028735  0.87357621    -0.01000
Br1804     Br  0.34135786  0.87292823  0.92261868    -0.01100
Br1805     Br  0.22916030  0.82420815  0.84928697    -0.01100
Br1806     Br  0.20740764  0.80835378  0.90025300    -0.01100
C1807       C  0.14082336  0.66080668  0.90306046    -0.02200
C1808       C  0.17007857  0.68858930  0.90459910     0.07500
C1809       C  0.18039295  0.70949658  0.88711331    -0.02300
C1810       C  0.15971870  0.70564594  0.87042277    -0.02300
C1811       C  0.12979750  0.67905912  0.86966322     0.07600
C1812       C  0.12200101  0.65537125  0.88483298    -0.02500
Br1813     Br  0.08783965  0.61416347  0.87931737    -0.01000
Br1814     Br  0.12471226  0.63008419  0.92568935    -0.01100
Br1815     Br  0.17345548  0.73661403  0.84831834    -0.01100
Br1816     Br  0.22348237  0.74251205  0.88501663    -0.01100
C1817       C  0.12281660  0.92543887  0.88424563    -0.02200
C1818       C  0.10733350  0.94079131  0.87660504     0.07500
C1819       C  0.11047316  0.96676011  0.88830093    -0.02300
C1820       C  0.12885765  0.97702866  0.90723663    -0.02300
C1821       C  0.14295793  0.96039711  0.91533493     0.07600
C1822       C  0.13777834  0.93327851  0.90434529    -0.02500
Br1823     Br  0.14752682  0.90426680  0.91783879    -0.01000
Br1824     Br  0.12841773  0.89723876  0.86607459    -0.01100
Br1825     Br  0.13516875  0.01430697  0.92148983    -0.01100
Br1826     Br  0.09093030  0.98945655  0.87787715    -0.01100
C1827       C  0.30186227  0.95404156  0.90207503    -0.02200
C1828       C  0.27002875  0.93599076  0.90824211     0.07500
C1829       C  0.24849206  0.91434850  0.89344528    -0.02300
C1830       C  0.25871153  0.91119408  0.87302090    -0.02300
C1831       C  0.29082253  0.92511384  0.86858513     0.07600
C1832       C  0.31243749  0.94754079  0.88278403    -0.02500
Br1833     Br  0.35625191  0.97074115  0.87537521    -0.01000
Br1834     Br  0.33089561  0.98999873  0.91839686    -0.01100
Br1835     Br  0.22885801  0.89196181  0.85011007    -0.01100
Br1836     Br  0.20541338  0.88725538  0.90098892    -0.01100
C1837       C  0.45115026  0.83340576  0.11484126    -0.02200
C1838       C  0.42604729  0.81355031  0.12835128     0.07500
C1839       C  0.40931930  0.78152201  0.12340366    -0.02300
C1840       C  0.41530940  0.76994276  0.10423678    -0.02300
C1841       C  0.43977385  0.78987155  0.09029226     0.07600
C1842       C  0.45770598  0.82182564  0.09584711    -0.02500
Br1843     Br  0.99279723  0.85022724  0.07832397    -0.01000
Br1844     Br  0.47843946  0.87617563  0.12299490    -0.01100
Br1845     Br  0.38869742  0.72675681  0.09688762    -0.01100
Br1846     Br  0.38120258  0.75258229  0.14438523    -0.01100
C1847       C  0.37614318  0.84098051  0.11516333    -0.02200
C1848       C  0.36671635  0.81810572  0.13122897     0.07500
C1849       C  0.33550672  0.79327253  0.13114658    -0.02300
C1850       C  0.31569872  0.78963604  0.11380865    -0.02300
C1851       C  0.32753464  0.80915984  0.09566388     0.07600
C1852       C  0.35763119  0.83577655  0.09681040    -0.02500
Br1853     Br  0.37512381  0.86502799  0.07334862    -0.01000
Br1854     Br  0.41208139  0.88141350  0.11966283    -0.01100
Br1855     Br  0.27171459  0.75923067  0.11560206    -0.01100
Br1856     Br  0.31894911  0.76461631  0.15492537    -0.01100
C1857       C  0.30492173  0.01117137  0.42829219    -0.02200
C1858       C  0.31346239  0.98782411  0.42823182     0.07500
C1859       C  0.31272632  0.97326672  0.44796853    -0.02300
C1860       C  0.29923163  0.97844067  0.46645859    -0.02300
C1861       C  0.28709739  0.99881638  0.46558147     0.07600
C1862       C  0.29350794  0.01764890  0.44729206    -0.02500
Br1863     Br  0.28984166  0.55428227  0.44901622    -0.01000
Br1864     Br  0.30521165  0.53241190  0.40223925    -0.01100
Br1865     Br  0.29731746  0.95723895  0.49280976    -0.01100
Br1866     Br  0.33027652  0.94617182  0.44999345    -0.01100
C1867       C  0.29659741  0.81761255  0.43506526    -0.02200
C1868       C  0.28028053  0.83370642  0.43029828     0.07500
C1869       C  0.26042898  0.83522891  0.44623811    -0.02300
C1870       C  0.25617057  0.81980723  0.46591544    -0.02300
C1871       C  0.26812815  0.79967967  0.46872143     0.07600
C1872       C  0.28985998  0.80003470  0.45393894    -0.02500
Br1873     Br  0.31238800  0.77845827  0.46039384    -0.01000
Br1874     Br  0.33061051  0.82149202  0.41732829    -0.01100
Br1875     Br  0.23832049  0.82983025  0.49018320    -0.01100
Br1876     Br  0.23778598  0.85707962  0.44157540    -0.01100
C1877       C  0.38121918  0.82496533  0.22543471    -0.02200
C1878       C  0.38523677  0.84427938  0.20774791     0.07500
C1879       C  0.37305815  0.86470905  0.20885411    -0.02300
C1880       C  0.35999407  0.86777272  0.22814479    -0.02300
C1881       C  0.36104182  0.85229216  0.24685838     0.07600
C1882       C  0.37103243  0.83020117  0.24532933    -0.02500
Br1883     Br  0.37308617  0.80829646  0.27033093    -0.01000
Br1884     Br  0.38580829  0.78891321  0.22186977    -0.01100
Br1885     Br  0.33969209  0.89258448  0.22862803    -0.01100
Br1886     Br  0.37367095  0.88864817  0.18414745    -0.01100
C1887       C  0.05301337  0.81455431  0.43320435    -0.02200
C1888       C  0.03136608  0.82157250  0.42328227     0.07500
C1889       C  0.00166395  0.81041290  0.43293349    -0.02300
C1890       C  0.99353665  0.79203006  0.45174126    -0.02300
C1891       C  0.01475044  0.78402374  0.46100843     0.07600
C1892       C  0.04501222  0.79682819  0.45222849    -0.02500
Br1893     Br  0.07689593  0.79314218  0.46755524    -0.01000
Br1894     Br  0.09357637  0.82750264  0.42054856    -0.01100
Br1895     Br  0.45334878  0.77860708  0.46508563    -0.01100
Br1896     Br  0.97225911  0.82131937  0.42116935    -0.01100
C1897       C  0.20732472  0.99169598  0.44622202    -0.02200
C1898       C  0.21850594  0.97506562  0.45808632     0.07500
C1899       C  0.21235702  0.94568795  0.45043800    -0.02300
C1900       C  0.19639116  0.93380398  0.43077904    -0.02300
C1901       C  0.18497620  0.95040059  0.41920930     0.07600
C1902       C  0.19067686  0.97948764  0.42703233    -0.02500
Br1903     Br  0.17334822  0.00198811  0.41263346    -0.01000
Br1904     Br  0.21272566  0.03064164  0.45664518    -0.01100
Br1905     Br  0.19070566  0.89515029  0.41943459    -0.01100
Br1906     Br  0.22227084  0.91993079  0.46792950    -0.01100
C1907       C  0.46566329  0.84303841  0.21338577    -0.02200
C1908       C  0.45280583  0.85976406  0.20353294     0.07500
C1909       C  0.46208229  0.88997632  0.21132549    -0.02300
C1910       C  0.48055814  0.90166682  0.23013104    -0.02300
C1911       C  0.49168407  0.88407142  0.24080622     0.07600
C1912       C  0.48491882  0.85509948  0.23177593    -0.02500
Br1913     Br  0.50363264  0.83231040  0.24370902    -0.01000
Br1914     Br  0.45771988  0.80365275  0.20164027    -0.01100
Br1915     Br  0.98962234  0.94141873  0.24158585    -0.01100
Br1916     Br  0.45270256  0.91699115  0.19483849    -0.01100
C1917       C  0.44519994  0.65167911  0.10550168    -0.02200
C1918       C  0.47432869  0.66197863  0.09506384     0.07500
C1919       C  0.49288281  0.64893957  0.10143744    -0.02300
C1920       C  0.48169738  0.62488758  0.11685255    -0.02300
C1921       C  0.45203286  0.61384882  0.12658099     0.07600
C1922       C  0.43499350  0.62891972  0.12175742    -0.02500
Br1923     Br  0.39952240  0.62132444  0.13916172    -0.01000
Br1924     Br  0.41754768  0.66680221  0.09703222    -0.01100
Br1925     Br  0.50790869  0.60791002  0.12512029    -0.01100
Br1926     Br  0.03455823  0.66488055  0.08997426    -0.01100
C1927       C  0.34179335  0.53340425  0.10692861    -0.02200
C1928       C  0.35305810  0.53039317  0.08655137     0.07500
C1929       C  0.38368995  0.53459847  0.08522166    -0.02300
C1930       C  0.40293785  0.54315420  0.10365397    -0.02300
C1931       C  0.39272212  0.54912102  0.12340388     0.07600
C1932       C  0.36139571  0.54258398  0.12516092    -0.02500
Br1933     Br  0.34444520  0.54540053  0.15268729    -0.01000
Br1934     Br  0.29879746  0.52345167  0.11058968    -0.01100
Br1935     Br  0.44214009  0.54352557  0.10229049    -0.01100
Br1936     Br  0.40071531  0.53000800  0.05822471    -0.01100
C1937       C  0.41092046  0.99303493  0.22498362    -0.02200
C1938       C  0.39735111  0.50253891  0.24161238     0.07500
C1939       C  0.38990986  0.52619285  0.23662624    -0.02300
C1940       C  0.39526186  0.53903519  0.21580573    -0.02300
C1941       C  0.40925276  0.52995877  0.19979478     0.07600
C1942       C  0.41465216  0.50527783  0.20389319    -0.02500
Br1943     Br  0.42567084  0.98685489  0.18042468    -0.01000
Br1944     Br  0.42686390  0.96510669  0.23013059    -0.01100
Br1945     Br  0.38068444  0.56733345  0.20829069    -0.01100
Br1946     Br  0.37345323  0.54329884  0.25766968    -0.01100
C1947       C  0.19906866  0.62732411  0.09073860    -0.02200
C1948       C  0.22838627  0.65451261  0.08765035     0.07500
C1949       C  0.24866356  0.66745932  0.10571389    -0.02300
C1950       C  0.23784150  0.65618624  0.12652081    -0.02300
C1951       C  0.20846290  0.62972710  0.12933715     0.07600
C1952       C  0.18861860  0.61629955  0.11159981    -0.02500
Br1953     Br  0.14565555  0.58505553  0.11632661    -0.01000
Br1954     Br  0.17380426  0.60265083  0.06682343    -0.01100
Br1955     Br  0.26221602  0.67844076  0.15140858    -0.01100
Br1956     Br  0.29239087  0.69848292  0.10277271    -0.01100
C1957       C  0.24482804  0.59157787  0.12694288    -0.02200
C1958       C  0.21341954  0.57397873  0.13349817     0.07500
C1959       C  0.19243473  0.54846045  0.12094315    -0.02300
C1960       C  0.20194948  0.54309354  0.10078841    -0.02300
C1961       C  0.23205225  0.56409960  0.09263741     0.07600
C1962       C  0.25372313  0.58810061  0.10606995    -0.02500
Br1963     Br  0.29500947  0.61747949  0.09581652    -0.01000
Br1964     Br  0.27612720  0.61780225  0.14743423    -0.01100
Br1965     Br  0.17414939  0.50549979  0.08536033    -0.01100
Br1966     Br  0.15094359  0.52021459  0.13152613    -0.01100
C1967       C  0.13743173  0.54222704  0.21327231    -0.02200
C1968       C  0.16926809  0.55726379  0.20750106     0.07500
C1969       C  0.18974539  0.55034981  0.21900531    -0.02300
C1970       C  0.17871768  0.53002193  0.23671875    -0.02300
C1971       C  0.14725981  0.51698210  0.24353013     0.07600
C1972       C  0.12690186  0.52392594  0.23191954    -0.02500
Br1973     Br  0.08505966  0.01052460  0.24223708    -0.01000
Br1974     Br  0.10706933  0.54242421  0.19402770    -0.01100
Br1975     Br  0.20689603  0.51925736  0.25082364    -0.01100
Br1976     Br  0.23282609  0.56737600  0.21006618    -0.01100
C1977       C  0.03801116  0.69425528  0.44690795    -0.02200
C1978       C  0.02105909  0.68807547  0.42755377     0.07500
C1979       C  0.99649735  0.69503521  0.42622360    -0.02300
C1980       C  0.49042090  0.70952160  0.44364100    -0.02300
C1981       C  0.01024237  0.71956345  0.46173005     0.07600
C1982       C  0.03343805  0.71078147  0.46358684    -0.02500
Br1983     Br  0.05915587  0.72079382  0.48911755    -0.01000
Br1984     Br  0.06656215  0.67864968  0.45113409    -0.01100
Br1985     Br  0.45300944  0.71258622  0.44345863    -0.01100
Br1986     Br  0.47141400  0.68632817  0.40051401    -0.01100
C1987       C  0.20155059  0.72045029  0.42971471    -0.02200
C1988       C  0.17946115  0.73041758  0.42572158     0.07500
C1989       C  0.17256184  0.74534440  0.44283380    -0.02300
C1990       C  0.18608458  0.74862280  0.46333748    -0.02300
C1991       C  0.20918600  0.74044566  0.46657523     0.07600
C1992       C  0.21593067  0.72530964  0.45002477    -0.02500
Br1993     Br  0.24294046  0.70850109  0.45602456    -0.01000
Br1994     Br  0.21278120  0.69934517  0.40822314    -0.01100
Br1995     Br  0.17040415  0.76097843  0.48769694    -0.01100
Br1996     Br  0.14630840  0.76363515  0.43872783    -0.01100
C1997       C  0.46654371  0.61300336  0.21429348    -0.02200
C1998       C  0.46720262  0.58975528  0.20158952     0.07500
C1999       C  0.48301396  0.57474524  0.20919208    -0.02300
C2000       C  0.99362258  0.57902525  0.23050110    -0.02300
C2001       C  0.49317335  0.60223848  0.24345880     0.07600
C2002       C  0.47971108  0.61948106  0.23508661    -0.02500
Br2003     Br  0.48032751  0.65322260  0.25114530    -0.01000
Br2004     Br  0.44981855  0.63773446  0.20263742    -0.01100
Br2005     Br  0.00698079  0.55146595  0.24199923    -0.01100
Br2006     Br  0.99466201  0.55228846  0.18942237    -0.01100
C2007       C  0.13480059  0.63509389  0.22031003    -0.02200
C2008       C  0.15220976  0.64396069  0.23975774     0.07500
C2009       C  0.18028248  0.64251667  0.24069400    -0.02300
C2010       C  0.18967275  0.63122463  0.22301263    -0.02300
C2011       C  0.17064397  0.61952699  0.20467114     0.07600
C2012       C  0.14420280  0.62333702  0.20284432    -0.02500
Br2013     Br  0.12123861  0.61366433  0.17605933    -0.01000
Br2014     Br  0.09827159  0.63956501  0.21681127    -0.01100
Br2015     Br  0.23045163  0.63484217  0.22303097    -0.01100
Br2016     Br  0.20599605  0.65397681  0.26628887    -0.01100
O2017       O  0.52817125  0.13479380  0.32936094    -0.88700
C2018       C  0.59450024  0.19286955  0.28668926     0.87300
Mg2019     Mg  0.52166763  0.14854756  0.36069388     1.58100
O2020       O  0.61031557  0.13911114  0.31310339    -0.88400
O2021       O  0.53524665  0.09914942  0.31425899    -0.75700
C2022       C  0.66042787  0.22096558  0.40532994     0.92400
O2023       O  0.55577853  0.20814528  0.32324963    -0.75600
O2024       O  0.63414044  0.21974685  0.40523133    -0.83100
Mg2025     Mg  0.53078315  0.16380443  0.30283886     1.58000
C2026       C  0.69999569  0.17314933  0.33717986     0.92300
O2027       O  0.50337273  0.12279484  0.27928912    -0.81300
H2028       H  0.59987613  0.09571421  0.31989315    -0.06700
C2029       C  0.65193908  0.22619818  0.34065982     0.87300
O2030       O  0.54987946  0.12882851  0.37651829    -0.75800
O2031       O  0.57457374  0.16748013  0.29376227    -0.88600
O2032       O  0.68599648  0.17075057  0.31958755    -0.81400
C2033       C  0.63970019  0.15145045  0.25952505     0.92400
C2034       C  0.51201538  0.11230871  0.26351441     0.92300
Mg2035     Mg  0.64306380  0.17075814  0.36509116     1.58000
O2036       O  0.66962190  0.21249408  0.38873493    -0.81300
O2037       O  0.61911751  0.12600305  0.34476490    -0.75600
O2038       O  0.61029251  0.13851951  0.26217901    -0.81400
O2039       O  0.98495284  0.16084516  0.31257597    -0.83100
O2040       O  0.56209638  0.19205740  0.40551581    -0.81400
C2041       C  0.60958717  0.11937682  0.32547084     0.86700
O2042       O  0.59856256  0.16535784  0.37397011    -0.88600
O2043       O  0.64473426  0.19880036  0.33829533    -0.88700
O2044       O  0.63773823  0.23406931  0.35411605    -0.75700
Mg2045     Mg  0.57418519  0.12421094  0.28930856     1.58000
O2046       O  0.65832895  0.16869559  0.27406880    -0.83100
H2047       H  0.50209055  0.08997725  0.33693502    -0.06800
O2048       O  0.56285433  0.19384532  0.35498948    -0.88400
H2049       H  0.57484710  0.23772409  0.34846894    -0.06700
H2050       H  0.58587132  0.12558760  0.38933466    -0.06900
C2051       C  0.56459373  0.21410907  0.34270195     0.86700
C2052       C  0.52077509  0.10732284  0.32721282     0.87300
C2053       C  0.57860601  0.13962779  0.38055739     0.87300
H2054       H  0.67041013  0.24375472  0.33091986    -0.06800
O2055       O  0.62322775  0.20376075  0.29068462    -0.75900
Mg2056     Mg  0.59851615  0.20815337  0.37898330     1.58000
H2057       H  0.58719024  0.20660830  0.27756552    -0.06800
C2058       C  0.97407802  0.16228649  0.33087853     0.92300
O2059       O  0.51387672  0.16318938  0.39331335    -0.83100
C2060       C  0.53272278  0.17971478  0.40793151     0.92400
O2061       O  0.53770936  0.11218247  0.26383439    -0.83100
Mg2062     Mg  0.65122868  0.18424553  0.30690768     1.58200
O2063       O  0.48693499  0.16199473  0.34840924    -0.81400
O2064       O  0.68966225  0.17604761  0.35530769    -0.83100
C2065       C  0.68013092  0.10596452  0.18657873     0.01900
C2066       C  0.68035284  0.07741513  0.18814783     0.01900
C2067       C  0.69114300  0.06737795  0.17061128    -0.18600
C2068       C  0.70169898  0.08479762  0.15176246     0.01900
C2069       C  0.70042586  0.11247759  0.14998022     0.01900
C2070       C  0.69037926  0.12308261  0.16744820    -0.18600
H2071       H  0.69025787  0.14475457  0.16604399     0.04000
H2072       H  0.69130042  0.04568986  0.17162950     0.04000
C2073       C  0.94892025  0.07875785  0.18122307     0.01900
C2074       C  0.92186056  0.04912741  0.17996607     0.01900
C2075       C  0.90527698  0.03960302  0.16052809    -0.18600
C2076       C  0.91370658  0.05971134  0.14266330     0.01900
C2077       C  0.94102439  0.08973830  0.14407398     0.01900
C2078       C  0.95826866  0.09837131  0.16331398    -0.18600
H2079       H  0.97884727  0.12115249  0.16460780     0.04000
H2080       H  0.88461474  0.01684085  0.15966267     0.04000
O2081       O  0.64510910  0.44910886  0.33660746    -0.88700
C2082       C  0.57565148  0.42666635  0.38019134     0.87300
Mg2083     Mg  0.64957363  0.47559500  0.30844588     1.58100
O2084       O  0.56877807  0.36379508  0.34951697    -0.88400
O2085       O  0.64281272  0.40636175  0.34799681    -0.75700
C2086       C  0.51148409  0.39599820  0.26060597     0.92400
O2087       O  0.61000091  0.48689419  0.34879223    -0.75600
O2088       O  0.53512640  0.42331921  0.26137820    -0.83100
Mg2089     Mg  0.63932669  0.46847760  0.36582105     1.58000
C2090       C  0.98069513  0.30424240  0.32130012     0.92300
O2091       O  0.67094692  0.45421665  0.38339762    -0.81300
H2092       H  0.58582576  0.33685233  0.33954254    -0.06700
C2093       C  0.51788385  0.40340900  0.32617289     0.87300
O2094       O  0.62789703  0.43096712  0.28774996    -0.75800
O2095       O  0.59769894  0.42546371  0.37178902    -0.88600
O2096       O  0.49322269  0.31463112  0.33960675    -0.81400
C2097       C  0.54026104  0.34089953  0.40309420     0.92400
C2098       C  0.66479149  0.43731216  0.39994843     0.92300
Mg2099     Mg  0.53584007  0.36546750  0.29786780     1.58000
O2100       O  0.50511298  0.37725204  0.27622776    -0.81300
O2101       O  0.56430622  0.34771112  0.31616781    -0.75600
O2102       O  0.56816891  0.36331366  0.40140622    -0.81400
O2103       O  0.68362409  0.01392411  0.36078526    -0.83100
O2104       O  0.60814009  0.47351694  0.26306619    -0.81400
C2105       C  0.57324375  0.34875118  0.33545577     0.86700
O2106       O  0.57743917  0.40941694  0.29181857    -0.88600
O2107       O  0.52864199  0.38567088  0.32683663    -0.88700
O2108       O  0.52974264  0.42714011  0.31406276    -0.75700
Mg2109     Mg  0.60411045  0.38623862  0.37408793     1.58000
O2110       O  0.52069102  0.33411135  0.38778947    -0.83100
H2111       H  0.67342585  0.43433333  0.32521386    -0.06800
O2112       O  0.60432866  0.47080744  0.31527249    -0.88400
H2113       H  0.58668070  0.49687554  0.32616387    -0.06700
H2114       H  0.59676146  0.39101877  0.27273200    -0.06900
C2115       C  0.59983281  0.48539169  0.32973455     0.86700
C2116       C  0.65470807  0.43037687  0.33612545     0.87300
C2117       C  0.60029342  0.40957913  0.28356726     0.87300
H2118       H  0.49814555  0.39881039  0.33624618    -0.06800
O2119       O  0.54762090  0.40628168  0.37621971    -0.75900
Mg2120     Mg  0.57018949  0.44834814  0.28932486     1.58000
H2121       H  0.58030931  0.44582096  0.39077936    -0.06800
C2122       C  0.69320285  0.03115012  0.34439243     0.92300
O2123       O  0.65366133  0.50357866  0.27906869    -0.83100
C2124       C  0.63580111  0.49678292  0.26288690     0.92400
O2125       O  0.64036680  0.41073442  0.40076668    -0.83100
Mg2126     Mg  0.52443913  0.36100511  0.35658642     1.58200
O2127       O  0.67950859  0.02244601  0.32623018    -0.81400
O2128       O  0.99163414  0.31935885  0.30399152    -0.83100
O2129       O  0.80929848  0.35997238  0.34469864    -0.88700
C2130       C  0.86417983  0.43407411  0.38277163     0.87300
Mg2131     Mg  0.82616264  0.35224557  0.31515776     1.58100
O2132       O  0.80533635  0.44081050  0.35521584    -0.88400
O2133       O  0.77170147  0.36657634  0.35760674    -0.75700
C2134       C  0.88722908  0.48524385  0.26279626     0.92400
O2135       O  0.88354355  0.39198979  0.35249568    -0.75600
O2136       O  0.89158616  0.46254942  0.26636334    -0.83100
Mg2137     Mg  0.83792995  0.36742815  0.37212736     1.58000
C2138       C  0.83044526  0.02534218  0.32359197     0.92300
O2139       O  0.79422834  0.34096256  0.39324192    -0.81300
H2140       H  0.76036147  0.42533047  0.34860531    -0.06700
C2141       C  0.89236729  0.48635788  0.32781123     0.87300
O2142       O  0.80247761  0.37458066  0.29641008    -0.75800
O2143       O  0.83930282  0.41151900  0.37693342    -0.88600
O2144       O  0.83067351  0.51496888  0.34221250    -0.81400
C2145       C  0.81936006  0.47583770  0.40757202     0.92400
C2146       C  0.78684721  0.35097871  0.40981470     0.92300
Mg2147     Mg  0.83330866  0.46708299  0.30166383     1.58000
O2148       O  0.87201911  0.49192968  0.27629639    -0.81300
O2149       O  0.78936962  0.44284944  0.32287871    -0.75600
O2150       O  0.80920527  0.44683645  0.40599895    -0.81400
O2151       O  0.83723140  0.32103589  0.36673459    -0.83100
O2152       O  0.86650096  0.39156210  0.27034437    -0.81400
C2153       C  0.78408231  0.43612858  0.34268783     0.86700
O2154       O  0.83439248  0.42465712  0.29747469    -0.88600
O2155       O  0.86414442  0.47726299  0.32888176    -0.88700
O2156       O  0.90270396  0.47145481  0.31729061    -0.75700
Mg2157     Mg  0.79452105  0.40820104  0.38103849     1.58000
O2158       O  0.83238052  0.49387360  0.39168380    -0.83100
H2159       H  0.76457307  0.33218739  0.33663923    -0.06800
O2160       O  0.86853354  0.39665846  0.32034605    -0.88400
H2161       H  0.91323789  0.41093778  0.32721386    -0.06700
H2162       H  0.79429570  0.40577580  0.28109270    -0.06900
C2163       C  0.88942294  0.40018111  0.33290863     0.86700
C2164       C  0.78127639  0.35189910  0.34594241     0.87300
C2165       C  0.81001272  0.40203546  0.29103761     0.87300
H2166       H  0.90852037  0.50685011  0.33669670    -0.06800
O2167       O  0.87165872  0.46157018  0.37743635    -0.75900
Mg2168     Mg  0.88045015  0.42963871  0.29460424     1.58000
H2169       H  0.88025409  0.43027213  0.39227323    -0.06800
C2170       C  0.84326291  0.31072875  0.34966342     0.92300
O2171       O  0.84256473  0.34367861  0.28321849    -0.83100
C2172       C  0.85580868  0.36268114  0.26793742     0.92400
O2173       O  0.78636333  0.37624677  0.40917836    -0.83100
Mg2174     Mg  0.84827708  0.48491006  0.35910536     1.58200
O2175       O  0.84538458  0.32317837  0.33137564    -0.81400
O2176       O  0.83340228  0.01283875  0.30649848    -0.83100
C2177       C  0.92959949  0.34587287  0.18522312     0.01900
C2178       C  0.89847558  0.34021509  0.18731992     0.01900
C2179       C  0.87841417  0.32948458  0.16967973    -0.18600
C2180       C  0.88754478  0.32330524  0.14991460     0.01900
C2181       C  0.91732689  0.32559008  0.14794697     0.01900
C2182       C  0.93827219  0.33772366  0.16552741    -0.18600
H2183       H  0.96142747  0.34063822  0.16389905     0.04000
H2184       H  0.85518164  0.32645381  0.17127222     0.04000
O2185       O  0.71976355  0.02784493  0.00726830    -0.88700
C2186       C  0.74353133  0.47842196  0.04782831     0.87300
Mg2187     Mg  0.68972605  0.00604868  0.98002429     1.58100
O2188       O  0.80578442  0.03193176  0.01483228    -0.88400
O2189       O  0.76547985  0.06614483  0.01694413    -0.75700
C2190       C  0.75943928  0.44206760  0.92913568     0.92400
O2191       O  0.67909364  0.45602543  0.01997983    -0.75600
O2192       O  0.73360621  0.44174102  0.93025790    -0.83100
Mg2193     Mg  0.70256310  0.50411489  0.03692250     1.58000
C2194       C  0.86005885  0.00031781  0.98340158     0.92300
O2195       O  0.72252929  0.04983951  0.05576016    -0.81300
H2196       H  0.83535472  0.07510794  0.00492749    -0.06700
C2197       C  0.75847527  0.44214004  0.99331451     0.87300
O2198       O  0.73341091  0.02734294  0.95780750    -0.75800
O2199       O  0.74552393  0.50227287  0.04029561    -0.88600
O2200       O  0.85244972  0.00554625  0.00195001    -0.81400
C2201       C  0.83319242  0.02374486  0.06680170     0.92400
C2202       C  0.74154144  0.05796989  0.07140554     0.92300
Mg2203     Mg  0.79661641  0.99516445  0.96402242     1.58000
O2204       O  0.77712425  0.44939279  0.94542578    -0.81300
O2205       O  0.82051883  0.04256765  0.98122278    -0.75600
O2206       O  0.81527808  0.03530058  0.06546312    -0.81400
O2207       O  0.65759237  0.50702562  0.03346206    -0.83100
O2208       O  0.68797171  0.46725143  0.93414916    -0.81400
C2209       C  0.82130611  0.05085201  0.00070029     0.86700
O2210       O  0.75365936  0.99720139  0.96101653    -0.88600
O2211       O  0.77813194  0.47008710  0.99317023    -0.88700
O2212       O  0.73331046  0.43138803  0.98253838    -0.75700
Mg2213     Mg  0.78762845  0.04678385  0.04079824     1.58000
O2214       O  0.83519256  0.00792578  0.05139066    -0.83100
H2215       H  0.73629817  0.07105170  0.99638820    -0.06800
O2216       O  0.69335734  0.46536097  0.98616572    -0.88400
H2217       H  0.66526644  0.42235954  0.99706589    -0.06700
H2218       H  0.77259585  0.03451394  0.94194324    -0.06900
C2219       C  0.67865396  0.44685623  0.00073093     0.86700
C2220       C  0.74008360  0.05553438  0.00642101     0.87300
C2221       C  0.75417886  0.02020614  0.95309477     0.87300
H2222       H  0.76263024  0.42654924  0.00297317    -0.06800
O2223       O  0.76246418  0.46931035  0.04235941    -0.75900
Mg2224     Mg  0.71236030  0.45236409  0.95925279     1.58000
H2225       H  0.72482628  0.46463194  0.05894708    -0.06800
C2226       C  0.63809402  0.49666545  0.01807695     0.92300
O2227       O  0.65781063  0.48191791  0.95098230    -0.83100
C2228       C  0.66401246  0.47062099  0.93451984     0.92400
O2229       O  0.76757468  0.05889509  0.06944937    -0.83100
Mg2230     Mg  0.80644028  0.48935367  0.02103942     1.58200
O2231       O  0.64438001  0.48785172  0.00035843    -0.81400
O2232       O  0.84164352  0.99262728  0.96745837    -0.83100
O2233       O  0.77470667  0.30865099  0.99636373    -0.88700
C2234       C  0.77134550  0.24379077  0.95423484     0.87300
Mg2235     Mg  0.79357520  0.31298748  0.02775895     1.58100
O2236       O  0.70001305  0.22519003  0.97957230    -0.88400
O2237       O  0.73094711  0.29920246  0.98159971    -0.75700
C2238       C  0.73433748  0.17296118  0.06761394     0.92400
O2239       O  0.82496715  0.28588240  0.98997572    -0.75600
O2240       O  0.75922066  0.19881934  0.06635865    -0.83100
Mg2241     Mg  0.80266670  0.30844654  0.97001750     1.58000
C2242       C  0.64269905  0.13550958  0.00072703     0.92300
O2243       O  0.78645360  0.33384138  0.94616519    -0.81300
H2244       H  0.66478792  0.23323802  0.98537980    -0.06700
C2245       C  0.74659476  0.18468758  0.00414773     0.87300
O2246       O  0.74469462  0.28228295  0.04198910    -0.75800
O2247       O  0.76468741  0.26328472  0.96089562    -0.88600
O2248       O  0.65479445  0.15135756  0.98384164    -0.81400
C2249       C  0.68734255  0.19842779  0.92533165     0.92400
C2250       C  0.76775256  0.32349282  0.93020153     0.92300
Mg2251     Mg  0.69680915  0.18968133  0.02976175     1.58000
O2252       O  0.71301875  0.16473453  0.05342294    -0.81300
O2253       O  0.67472451  0.21289979  0.01003672    -0.75600
O2254       O  0.70341158  0.22724972  0.92908907    -0.81400
O2255       O  0.84270742  0.35515200  0.98122033    -0.83100
O2256       O  0.79576639  0.26982093  0.07092122    -0.81400
C2257       C  0.67917226  0.22406925  0.99120609     0.86700
O2258       O  0.73483709  0.23425594  0.03903993    -0.88600
O2259       O  0.72443871  0.18953495  0.00318459    -0.88700
O2260       O  0.76963189  0.20053120  0.01639811    -0.75700
Mg2261     Mg  0.72053296  0.26145449  0.95641753     1.58000
O2262       O  0.68374838  0.17876771  0.93949067    -0.83100
H2263       H  0.75317683  0.33229525  0.00443268    -0.06800
O2264       O  0.79928199  0.27372021  0.02028034    -0.88400
H2265       H  0.83529050  0.26667074  0.01513284    -0.06700
H2266       H  0.70551961  0.24527106  0.05368204    -0.06900
C2267       C  0.82057961  0.27527457  0.00894835     0.86700
C2268       C  0.75329728  0.31445369  0.99449649     0.87300
C2269       C  0.72759997  0.25342814  0.04549712     0.87300
H2270       H  0.74692397  0.16740420  0.99370635    -0.06800
O2271       O  0.75350891  0.21493624  0.95742908    -0.75900
Mg2272     Mg  0.77970139  0.23671990  0.04257819     1.58000
H2273       H  0.79329743  0.25155333  0.94597224    -0.06800
C2274       C  0.85597440  0.36276005  0.99958831     0.92300
O2275       O  0.81323350  0.31838665  0.06104082    -0.83100
C2276       C  0.81042237  0.29867401  0.07499940     0.92400
O2277       O  0.74329836  0.29719737  0.93110533    -0.83100
Mg2278     Mg  0.70460960  0.18502057  0.97222611     1.58200
O2279       O  0.84333476  0.34737389  0.01656456    -0.81400
O2280       O  0.65655128  0.14284378  0.01888102    -0.83100
O2281       O  0.53026211  0.22181536  0.99645162    -0.88700
C2282       C  0.97160887  0.22810033  0.95342838     0.87300
Mg2283     Mg  0.51427767  0.20115784  0.02807965     1.58100
O2284       O  0.52828615  0.29826037  0.97769334    -0.88400
O2285       O  0.56649518  0.26170869  0.97924155    -0.75700
C2286       C  0.94894499  0.27724022  0.07134709     0.92400
O2287       O  0.95731052  0.17763799  0.99122927    -0.75600
O2288       O  0.94911019  0.25173915  0.07311000    -0.83100
Mg2289     Mg  0.00188536  0.19469747  0.97013430     1.58000
C2290       C  0.49809164  0.35796061  0.00038018     0.92300
O2291       O  0.54323078  0.20690860  0.94613540    -0.81300
H2292       H  0.57272194  0.32962487  0.98412405    -0.06700
C2293       C  0.94141685  0.25734381  0.00783805     0.87300
O2294       O  0.53705268  0.24962709  0.04382546    -0.75800
O2295       O  0.99769470  0.23368901  0.95945492    -0.88600
O2296       O  0.49966858  0.34469254  0.98333639    -0.81400
C2297       C  0.51396555  0.31426509  0.92459561     0.92400
C2298       C  0.55201578  0.22311263  0.92892891     0.92300
Mg2299     Mg  0.49888472  0.30432237  0.03022599     1.58000
O2300       O  0.95807066  0.29306808  0.05404108    -0.81300
O2301       O  0.54290581  0.32134158  0.00908064    -0.75600
O2302       O  0.52723978  0.29796603  0.92654384    -0.81400
O2303       O  0.00682246  0.15364271  0.98134736    -0.83100
O2304       O  0.97673478  0.20501840  0.07545515    -0.81400
C2305       C  0.54884772  0.31703826  0.98985071     0.86700
O2306       O  0.50275676  0.26499293  0.04086322    -0.88600
O2307       O  0.96924044  0.27614892  0.00459181    -0.88700
O2308       O  0.93310623  0.23674718  0.02230385    -0.75700
Mg2309     Mg  0.54161229  0.27548256  0.95367723     1.58000
O2310       O  0.49688799  0.31502544  0.93954337    -0.83100
H2311       H  0.57555127  0.24007479  0.00352235    -0.06800
O2312       O  0.97073261  0.20015632  0.02293678    -0.88400
H2313       H  0.92641724  0.16960534  0.01547153    -0.06700
H2314       H  0.54365966  0.29058296  0.05577375    -0.06900
C2315       C  0.95053045  0.18195955  0.01028507     0.86700
C2316       C  0.55807495  0.24095189  0.99361068     0.87300
C2317       C  0.52825538  0.26932018  0.04732430     0.87300
H2318       H  0.92383328  0.25827844  0.99809476    -0.06800
O2319       O  0.96127182  0.24629803  0.95773864    -0.75900
Mg2320     Mg  0.95895702  0.22397619  0.04757366     1.58000
H2321       H  0.95675664  0.20659343  0.94505103    -0.06800
C2322       C  0.00044426  0.13991458  0.99942885     0.92300
O2323       O  0.99633269  0.17805763  0.06020185    -0.83100
C2324       C  0.98350799  0.18333192  0.07613900     0.92400
O2325       O  0.55191009  0.24867672  0.92781514    -0.83100
Mg2326     Mg  0.98294699  0.29484720  0.97258456     1.58200
O2327       O  0.99543420  0.15147366  0.01615414    -0.81400
O2328       O  0.49468378  0.34576768  0.01887319    -0.83100
O2329       O  0.63332019  0.01962693  0.67005579    -0.88700
C2330       C  0.69738235  0.09070184  0.70814964     0.87300
Mg2331     Mg  0.64287584  0.01327599  0.63721811     1.58100
O2332       O  0.63750522  0.10128137  0.68659813    -0.88400
O2333       O  0.59930285  0.02738606  0.68748583    -0.75700
C2334       C  0.71219525  0.15387716  0.59416398     0.92400
O2335       O  0.70908468  0.04887581  0.66938485    -0.75600
O2336       O  0.71390788  0.12921021  0.59348155    -0.83100
Mg2337     Mg  0.66907083  0.02619399  0.69346639     1.58000
C2338       C  0.66308676  0.18988600  0.66291574     0.92300
O2339       O  0.63680084  0.00184883  0.72243586    -0.81300
H2340       H  0.59236271  0.08879908  0.68415686    -0.06700
C2341       C  0.72066711  0.14377775  0.65647053     0.87300
O2342       O  0.62069137  0.04072438  0.62397333    -0.75800
O2343       O  0.67201711  0.06940939  0.70183089    -0.88600
O2344       O  0.66264346  0.17624308  0.68020582    -0.81400
C2345       C  0.65297965  0.12914540  0.73867351     0.92400
C2346       C  0.62431577  0.00913541  0.73768968     0.92300
Mg2347     Mg  0.66039015  0.13303830  0.63466051     1.58000
O2348       O  0.69720948  0.15833151  0.60910882    -0.81300
O2349       O  0.61806732  0.10845993  0.65725495    -0.75600
O2350       O  0.65276241  0.10359504  0.73704828    -0.81400
O2351       O  0.66499767  0.48069926  0.68348836    -0.83100
O2352       O  0.68132808  0.05432552  0.59016595    -0.81400
C2353       C  0.61506344  0.09921473  0.67654404     0.86700
O2354       O  0.65673992  0.08964117  0.62518673    -0.88600
O2355       O  0.69367568  0.13849259  0.65932393    -0.88700
O2356       O  0.72695493  0.12821542  0.64313644    -0.75700
Mg2357     Mg  0.62865940  0.06713709  0.71074777     1.58000
O2358       O  0.66255132  0.14836322  0.72334329    -0.83100
H2359       H  0.58732802  0.99280864  0.66566796    -0.06800
O2360       O  0.68807893  0.05456735  0.64038145    -0.88400
H2361       H  0.73271289  0.06505219  0.64135314    -0.06700
H2362       H  0.61466578  0.07546155  0.61242044    -0.06900
C2363       C  0.71070951  0.05609780  0.64977237     0.86700
C2364       C  0.60596760  0.01211679  0.67418560     0.87300
C2365       C  0.63034294  0.06905732  0.61993196     0.87300
H2366       H  0.73928511  0.16147651  0.66605251    -0.06800
O2367       O  0.70482666  0.11889275  0.70559732    -0.75900
Mg2368     Mg  0.70020658  0.09055436  0.61767056     1.58000
H2369       H  0.71364697  0.08525394  0.71585358    -0.06800
C2370       C  0.66241241  0.46819020  0.66512371     0.92300
O2371       O  0.65406297  0.00644030  0.60300134    -0.83100
C2372       C  0.66854333  0.02496028  0.58768368     0.92400
O2373       O  0.61977554  0.03199174  0.73612455    -0.83100
Mg2374     Mg  0.68041886  0.14404925  0.69117588     1.58200
O2375       O  0.65849249  0.97925419  0.64783007    -0.81400
O2376       O  0.66459541  0.17939603  0.64448091    -0.83100
C2377       C  0.60955551  0.17322027  0.85071230     0.01900
C2378       C  0.58197896  0.17549737  0.85107535     0.01900
C2379       C  0.56313315  0.16682064  0.83239068    -0.18600
C2380       C  0.57160938  0.15664764  0.81351162     0.01900
C2381       C  0.60027866  0.15643191  0.81326515     0.01900
C2382       C  0.61808283  0.16373185  0.83196797    -0.18600
H2383       H  0.63932136  0.16229745  0.83186579     0.04000
H2384       H  0.54176853  0.16794290  0.83254577     0.04000
C2385       C  0.58883835  0.43045990  0.85604450     0.01900
C2386       C  0.55796774  0.40480121  0.85498509     0.01900
C2387       C  0.53972918  0.40078714  0.83661128    -0.18600
C2388       C  0.55240584  0.41918768  0.81812661     0.01900
C2389       C  0.58454958  0.44245791  0.81827496     0.01900
C2390       C  0.60203351  0.44806439  0.83733580    -0.18600
H2391       H  0.62626043  0.46632091  0.83764810     0.04000
H2392       H  0.51555824  0.38239012  0.83650847     0.04000
O2393       O  0.96995505  0.10970593  0.67008243    -0.88700
C2394       C  0.90570626  0.09991510  0.71551751     0.87300
Mg2395     Mg  0.97138574  0.12696701  0.63820960     1.58100
O2396       O  0.89335056  0.03164569  0.68883918    -0.88400
O2397       O  0.96798995  0.06929908  0.68505230    -0.75700
C2398       C  0.82677655  0.05447529  0.60141584     0.92400
O2399       O  0.93951539  0.15359750  0.67693789    -0.75600
O2400       O  0.85174771  0.08063195  0.59997230    -0.83100
Mg2401     Mg  0.96776088  0.13730648  0.69656713     1.58000
C2402       C  0.80224715  0.46968033  0.66864806     0.92300
O2403       O  0.99737036  0.12873919  0.72157080    -0.81300
H2404       H  0.90719252  0.00155706  0.68018714    -0.06700
C2405       C  0.84328789  0.07095248  0.66510458     0.87300
O2406       O  0.94322644  0.07851936  0.62374956    -0.75800
O2407       O  0.92660376  0.09642842  0.70739146    -0.88600
O2408       O  0.81785050  0.48210395  0.68556692    -0.81400
C2409       C  0.86961781  0.01570627  0.74309490     0.92400
C2410       C  0.99360520  0.10930895  0.73626883     0.92300
Mg2411     Mg  0.85305504  0.02574334  0.63887039     1.58000
O2412       O  0.82111709  0.03730706  0.61795171    -0.81300
O2413       O  0.88273251  0.00918248  0.65715123    -0.75600
O2414       O  0.89809790  0.03653048  0.74074211    -0.81400
O2415       O  0.51168980  0.17989459  0.68418724    -0.83100
O2416       O  0.92468901  0.12859270  0.59562666    -0.81400
C2417       C  0.89480718  0.01353536  0.67579138     0.86700
O2418       O  0.89435138  0.06569455  0.62771611    -0.88600
O2419       O  0.85213285  0.05176161  0.66626758    -0.88700
O2420       O  0.85488355  0.09266514  0.65137907    -0.75700
Mg2421     Mg  0.93123540  0.05555207  0.71159421     1.58000
O2422       O  0.84944092  0.00973701  0.72857412    -0.83100
H2423       H  0.99830655  0.09373333  0.66114322    -0.06800
O2424       O  0.92961901  0.13002853  0.64586369    -0.88400
H2425       H  0.91708673  0.16161939  0.65272196    -0.06700
H2426       H  0.90724430  0.03905520  0.61155975    -0.06900
C2427       C  0.92857070  0.14915307  0.65803761     0.86700
C2428       C  0.97984948  0.09141721  0.67172498     0.87300
C2429       C  0.91445188  0.06041234  0.62029522     0.87300
H2430       H  0.82566590  0.06949964  0.67616263    -0.06800
O2431       O  0.87713294  0.07991859  0.71293935    -0.75900
Mg2432     Mg  0.89109061  0.10698326  0.62398477     1.58000
H2433       H  0.91185735  0.12082079  0.72454623    -0.06800
C2434       C  0.52120134  0.19046924  0.66531950     0.92300
O2435       O  0.97387055  0.14622508  0.60523102    -0.83100
C2436       C  0.95385048  0.14459402  0.59179521     0.92400
O2437       O  0.97072055  0.08173457  0.73543059    -0.83100
Mg2438     Mg  0.85080273  0.03177426  0.69712193     1.58200
O2439       O  0.00702447  0.17594832  0.64843601    -0.81400
O2440       O  0.80972925  0.48289557  0.65042495    -0.83100
O2441       O  0.85937317  0.30811950  0.65954747    -0.88700
C2442       C  0.93245012  0.35900509  0.61885646     0.87300
Mg2443     Mg  0.85017497  0.32667426  0.68776323     1.58100
O2444       O  0.93854739  0.30335692  0.65020744    -0.88400
O2445       O  0.86458122  0.26947446  0.64745746    -0.75700
C2446       C  0.98632529  0.39669788  0.73661303     0.92400
O2447       O  0.88880066  0.38121488  0.64795861    -0.75600
O2448       O  0.96165506  0.39858531  0.73482853    -0.83100
Mg2449     Mg  0.86539384  0.33393206  0.63071895     1.58000
C2450       C  0.52387761  0.33114600  0.68205844     0.92300
O2451       O  0.83908319  0.28873441  0.61229215    -0.81300
H2452       H  0.92183319  0.26006412  0.66100050    -0.06700
C2453       C  0.98325895  0.39333434  0.67130733     0.87300
O2454       O  0.87494909  0.30794292  0.70900391    -0.75800
O2455       O  0.91012946  0.33608234  0.62708628    -0.88600
O2456       O  0.01149536  0.32669805  0.66343284    -0.81400
C2457       C  0.97081120  0.30888798  0.59797744     0.92400
C2458       C  0.84877164  0.28298123  0.59496700     0.92300
Mg2459     Mg  0.96812993  0.34076320  0.70166328     1.58000
O2460       O  0.99569230  0.38604480  0.72137496    -0.81300
O2461       O  0.94193596  0.29334228  0.68409671    -0.75600
O2462       O  0.94496080  0.30868510  0.59816609    -0.81400
O2463       O  0.81801477  0.33092522  0.63423161    -0.83100
O2464       O  0.88853311  0.37319601  0.73186641    -0.81400
C2465       C  0.93371296  0.28456801  0.66475217     0.86700
O2466       O  0.92466660  0.34079582  0.70575255    -0.88600
O2467       O  0.97602131  0.36566090  0.67204364    -0.88700
O2468       O  0.96852451  0.40391791  0.68206842    -0.75700
Mg2469     Mg  0.90617670  0.29152109  0.62362163     1.58000
O2470       O  0.98920213  0.31917770  0.61406180    -0.83100
H2471       H  0.83119457  0.26435546  0.66896710    -0.06800
O2472       O  0.89328864  0.37013802  0.68128378    -0.88400
H2473       H  0.90630541  0.41334696  0.67190298    -0.06700
H2474       H  0.90844317  0.30427303  0.72538978    -0.06900
C2475       C  0.89631080  0.38921126  0.66743988     0.86700
C2476       C  0.85077351  0.28011806  0.65912006     0.87300
C2477       C  0.90312738  0.31740390  0.71403359     0.87300
H2478       H  0.00238233  0.40888732  0.66106264    -0.06800
O2479       O  0.96043422  0.36572630  0.62271036    -0.75900
Mg2480     Mg  0.92759460  0.38531952  0.70665803     1.58000
H2481       H  0.92813008  0.37350515  0.60812378    -0.06800
C2482       C  0.80515468  0.33497298  0.65064099     0.92300
O2483       O  0.84080356  0.34618582  0.71787559    -0.83100
C2484       C  0.85898021  0.36181028  0.73314570     0.92400
O2485       O  0.87403721  0.28215422  0.59473730    -0.83100
Mg2486     Mg  0.98300143  0.34381995  0.64390757     1.58200
O2487       O  0.81690891  0.33868304  0.66939974    -0.81400
O2488       O  0.51387419  0.33975321  0.69805642    -0.83100
C2489       C  0.79705566  0.38503792  0.84750052     0.01900
C2490       C  0.80146226  0.41522216  0.84931272     0.01900
C2491       C  0.81481388  0.43595289  0.83238181    -0.18600
C2492       C  0.82226247  0.42698398  0.81285543     0.01900
C2493       C  0.81630422  0.39585246  0.81040947     0.01900
C2494       C  0.80311922  0.37520066  0.82783937    -0.18600
H2495       H  0.79879801  0.35165028  0.82643195     0.04000
H2496       H  0.81912319  0.45944380  0.83438666     0.04000
C2497       C  0.50595499  0.26390290  0.48050857     0.01900
C2498       C  0.50344945  0.23407658  0.48043094     0.01900
C2499       C  0.49411103  0.21637870  0.49917715    -0.18600
C2500       C  0.98841654  0.22729180  0.51839968     0.01900
C2501       C  0.99233931  0.25768955  0.51915143     0.01900
C2502       C  0.50048984  0.27517927  0.49999474    -0.18600
H2503       H  0.50274341  0.29800838  0.50026131     0.04000
H2504       H  0.49177162  0.19347785  0.49890028     0.04000
C2505       C  0.75749798  0.27768121  0.48705442     0.01900
C2506       C  0.72839980  0.24979168  0.48656824     0.01900
C2507       C  0.71971638  0.22937770  0.50407575    -0.18600
C2508       C  0.74028228  0.23564618  0.52141493     0.01900
C2509       C  0.76991475  0.26310256  0.52131421     0.01900
C2510       C  0.77783163  0.28397459  0.50431583    -0.18600
H2511       H  0.80046777  0.30494593  0.50418533     0.04000
H2512       H  0.69741193  0.20805852  0.50384168     0.04000
C2513       C  0.73381662  0.48740753  0.47940268     0.01900
C2514       C  0.76625105  0.49917834  0.48298854     0.01900
C2515       C  0.77871572  0.51119982  0.50345497    -0.18600
C2516       C  0.75981360  0.01194887  0.52035201     0.01900
C2517       C  0.72769546  0.00123185  0.51641342     0.01900
C2518       C  0.71518735  0.48851730  0.49621051    -0.18600
H2519       H  0.69055701  0.47992198  0.49336736     0.04000
H2520       H  0.80332817  0.51984828  0.50636694     0.04000
O2521       O  0.50930455  0.45861250  0.01847970    -0.88700
C2522       C  0.56077604  0.02287302  0.97271516     0.87300
Mg2523     Mg  0.96078620  0.42463144  0.01400471     1.58100
O2524       O  0.53666010  0.05130665  0.01681402    -0.88400
O2525       O  0.53846312  0.99460700  0.04131721    -0.75700
C2526       C  0.89001358  0.50054978  0.98179976     0.92400
O2527       O  0.50267842  0.45026734  0.96689338    -0.75600
O2528       O  0.88954953  0.47518862  0.97770628    -0.83100
Mg2529     Mg  0.54076956  0.46290682  0.99244191     1.58000
C2530       C  0.49881121  0.10979432  0.00097761     0.92300
O2531       O  0.58381653  0.47316073  0.01259174    -0.81300
H2532       H  0.53702392  0.06057505  0.04816321    -0.06700
C2533       C  0.98068274  0.03076690  0.96293954     0.87300
O2534       O  0.94414524  0.45387816  0.03242997    -0.75800
O2535       O  0.55521135  0.01134748  0.99084866    -0.88600
O2536       O  0.52363873  0.10850187  0.99757906    -0.81400
C2537       C  0.61182651  0.10774628  0.99932703     0.92400
C2538       C  0.60841862  0.49710276  0.01920990     0.92300
Mg2539     Mg  0.95786865  0.03514587  0.00769123     1.58000
O2540       O  0.91470670  0.02487944  0.98760322    -0.81300
O2541       O  0.99595056  0.04800290  0.03319702    -0.75600
O2542       O  0.60863773  0.08286327  0.00734969    -0.81400
O2543       O  0.52607453  0.41210659  0.99544944    -0.83100
O2544       O  0.88997789  0.41543148  0.99345596    -0.81400
C2545       C  0.52407205  0.05390686  0.03326345     0.86700
O2546       O  0.94364436  0.48672423  0.00952440    -0.88600
O2547       O  0.98925536  0.03925064  0.98156773    -0.88700
O2548       O  0.95954406  0.50318477  0.95889534    -0.75700
Mg2549     Mg  0.57129288  0.03687295  0.02102948     1.58000
O2550       O  0.58909873  0.10959866  0.99129729    -0.83100
H2551       H  0.50625271  0.45113535  0.05018095    -0.06800
O2552       O  0.96186430  0.44671442  0.98329467    -0.88400
H2553       H  0.96167502  0.43790721  0.95187549    -0.06700
H2554       H  0.92910566  0.48405878  0.03990326    -0.06900
C2555       C  0.97455046  0.44437381  0.96680763     0.86700
C2556       C  0.51765893  0.46717860  0.03712948     0.87300
C2557       C  0.93820823  0.47516066  0.02764170     0.87300
H2558       H  0.99194929  0.04684373  0.94988298    -0.06800
O2559       O  0.55466137  0.04398177  0.96777713    -0.75900
Mg2560     Mg  0.92715388  0.46107257  0.97947732     1.58000
H2561       H  0.57006387  0.01403578  0.96056856    -0.06800
C2562       C  0.49972496  0.38810283  0.99871698     0.92300
O2563       O  0.90961317  0.38828384  0.00872244    -0.83100
C2564       C  0.88683281  0.39039679  0.00110639     0.92400
O2565       O  0.60888590  0.02247223  0.02346954    -0.83100
Mg2566     Mg  0.53785127  0.07320167  0.98594954     1.58200
O2567       O  0.97479884  0.38933826  0.00180322    -0.81400
O2568       O  0.97254950  0.08587039  0.00463918    -0.83100
O2569       O  0.87177846  0.15277456  0.31527491    -0.88700
C2570       C  0.81268077  0.11056655  0.36669130     0.87300
Mg2571     Mg  0.90934777  0.20050896  0.31467922     1.58100
O2572       O  0.78137566  0.13003569  0.32226436    -0.88400
O2573       O  0.83178945  0.11938416  0.29648509    -0.75700
C2574       C  0.84496528  0.28187388  0.35000579     0.92400
O2575       O  0.88808907  0.16756440  0.36564353    -0.75600
O2576       O  0.87142102  0.28319998  0.34968614    -0.83100
Mg2577     Mg  0.87000649  0.12554284  0.34303952     1.58000
C2578       C  0.72972679  0.17377003  0.33647934     0.92300
O2579       O  0.85484842  0.07967298  0.32472978    -0.81300
H2580       H  0.77076338  0.12740159  0.29102838    -0.06700
C2581       C  0.81455293  0.19410831  0.37195485     0.87300
O2582       O  0.87946869  0.21694258  0.29710989    -0.75800
O2583       O  0.82219158  0.11363663  0.34799431    -0.88600
O2584       O  0.72990883  0.14870553  0.33965722    -0.81400
C2585       C  0.72283001  0.06057411  0.34548328     0.92400
C2586       C  0.82924035  0.05425083  0.32233862     0.92300
Mg2587     Mg  0.80449316  0.21153963  0.32775578     1.58000
O2588       O  0.81943370  0.25621585  0.34806707    -0.81300
O2589       O  0.78704235  0.17020798  0.30413968    -0.75600
O2590       O  0.74740542  0.06024851  0.33960925    -0.81400
O2591       O  0.92020092  0.13767727  0.33756882    -0.83100
O2592       O  0.92766795  0.27567677  0.32996452    -0.81400
C2593       C  0.77910499  0.14167815  0.30531425     0.86700
O2594       O  0.85207316  0.22338519  0.32207770    -0.88600
O2595       O  0.80213215  0.18281670  0.35449067    -0.88700
O2596       O  0.84294607  0.21551329  0.37308856    -0.75700
Mg2597     Mg  0.79183733  0.09267230  0.32067485     1.58000
O2598       O  0.72312418  0.08545765  0.35067185    -0.83100
H2599       H  0.87415999  0.14866348  0.28340860    -0.06800
O2600       O  0.89408821  0.20693425  0.34646810    -0.88400
H2601       H  0.90618167  0.21124356  0.37746643    -0.06700
H2602       H  0.85022672  0.23372628  0.29127817    -0.06900
C2603       C  0.89695075  0.19615320  0.36361595     0.86700
C2604       C  0.86011943  0.14066715  0.29783754     0.87300
C2605       C  0.86031716  0.22545187  0.30311562     0.87300
H2606       H  0.80109049  0.18546621  0.38657428    -0.06800
O2607       O  0.79239961  0.11789062  0.37210098    -0.75900
Mg2608     Mg  0.88303700  0.24366303  0.34896384     1.58000
H2609       H  0.82229284  0.10209412  0.37877404    -0.06800
C2610       C  0.94466803  0.16239186  0.33191871     0.92300
O2611       O  0.94961387  0.25023898  0.31488083    -0.83100
C2612       C  0.95084355  0.27515074  0.32123613     0.92400
O2613       O  0.80302884  0.05323053  0.32110964    -0.83100
Mg2614     Mg  0.76386893  0.13500894  0.35329314     1.58200
O2615       O  0.94430140  0.18670446  0.32630489    -0.81400
O2616       O  0.75450062  0.19953759  0.33353244    -0.83100
O2617       O  0.65112014  0.36772925  0.68443370    -0.88700
C2618       C  0.60111082  0.30484709  0.63748013     0.87300
Mg2619     Mg  0.69915211  0.40292354  0.68115885     1.58100
O2620       O  0.62475946  0.27645925  0.68135878    -0.88400
O2621       O  0.62021528  0.33132377  0.70646560    -0.75700
C2622       C  0.77510770  0.33415949  0.64864013     0.92400
O2623       O  0.65875727  0.37665864  0.63311991    -0.75600
O2624       O  0.77529063  0.35955236  0.64631609    -0.83100
Mg2625     Mg  0.62029256  0.36376101  0.65852377     1.58000
C2626       C  0.66410041  0.21980881  0.66443701     0.92300
O2627       O  0.57848223  0.35356797  0.68062353    -0.81300
H2628       H  0.62443189  0.26647990  0.71250426    -0.06700
C2629       C  0.68400302  0.30122390  0.62808222     0.87300
O2630       O  0.71587754  0.37408971  0.69967292    -0.75800
O2631       O  0.60602346  0.31565384  0.65586890    -0.88600
O2632       O  0.63884891  0.22061938  0.66253701    -0.81400
C2633       C  0.55071439  0.21948804  0.66304478     0.92400
C2634       C  0.55244533  0.32897903  0.68390312     0.92300
Mg2635     Mg  0.70510793  0.29498887  0.67215474     1.58000
O2636       O  0.74988696  0.30847689  0.65176728    -0.81300
O2637       O  0.66577385  0.28008279  0.69737489    -0.75600
O2638       O  0.55229647  0.24399854  0.67051408    -0.81400
O2639       O  0.63506926  0.41429712  0.66131938    -0.83100
O2640       O  0.77240269  0.41601543  0.66280664    -0.81400
C2641       C  0.63748191  0.27380273  0.69763351     0.86700
O2642       O  0.71858123  0.34312352  0.67593028    -0.88600
O2643       O  0.67416774  0.29148611  0.64632084    -0.88700
O2644       O  0.70568876  0.32893921  0.62509171    -0.75700
Mg2645     Mg  0.58880296  0.28941624  0.68516879     1.58000
O2646       O  0.57434060  0.21876552  0.65540600    -0.83100
H2647       H  0.65246562  0.37461153  0.71621274    -0.06800
O2648       O  0.70019570  0.38274233  0.65011952    -0.88400
H2649       H  0.70047169  0.39042085  0.61856373    -0.06700
H2650       H  0.73157720  0.34432355  0.70651499    -0.06900
C2651       C  0.68733139  0.38393947  0.63341928     0.86700
C2652       C  0.64173992  0.35884674  0.70286827     0.87300
C2653       C  0.72274748  0.35355154  0.69440721     0.87300
H2654       H  0.67375425  0.28600862  0.61440346    -0.06800
O2655       O  0.60810021  0.28447201  0.63202618    -0.75900
Mg2656     Mg  0.73640248  0.37076870  0.64701645     1.58000
H2657       H  0.59174672  0.31376915  0.62558145    -0.06800
C2658       C  0.66135147  0.43849844  0.66425187     0.92300
O2659       O  0.74913263  0.44043795  0.67710467    -0.83100
C2660       C  0.77325258  0.44022140  0.67025156     0.92400
O2661       O  0.55045226  0.30259726  0.68595161    -0.83100
Mg2662     Mg  0.62527320  0.25593839  0.65023840     1.58200
O2663       O  0.68609882  0.43761834  0.66814658    -0.81400
O2664       O  0.69054701  0.24418213  0.66694874    -0.83100
C2665       C  0.85545970  0.36365380  0.77325991    -0.02200
C2666       C  0.84566519  0.36769624  0.75286959     0.07500
C2667       C  0.82380764  0.37815405  0.75148716    -0.02300
C2668       C  0.81244857  0.38502649  0.77034923    -0.02300
C2669       C  0.82506928  0.38456360  0.79061232     0.07600
C2670       C  0.84598066  0.37278531  0.79198731    -0.02500
Br2671     Br  0.86337891  0.37019754  0.81922853    -0.01000
Br2672     Br  0.88090451  0.34421795  0.77567539    -0.01100
Br2673     Br  0.77752939  0.39211814  0.76836286    -0.01100
Br2674     Br  0.81050386  0.38501137  0.72383205    -0.01100
C2675       C  0.82123184  0.30078296  0.57015720    -0.02200
C2676       C  0.83102968  0.27912355  0.57495200     0.07500
C2677       C  0.82469041  0.25513131  0.56017557    -0.02300
C2678       C  0.80739814  0.25206879  0.54148538    -0.02300
C2679       C  0.79311178  0.27034184  0.53877768     0.07600
C2680       C  0.80134137  0.29576272  0.55264772    -0.02500
Br2681     Br  0.78630875  0.32445401  0.54751749    -0.01000
Br2682     Br  0.83758782  0.33923706  0.58598854    -0.01100
Br2683     Br  0.80703229  0.22603080  0.51835908    -0.01100
Br2684     Br  0.83851838  0.22572440  0.56558466    -0.01100
C2685       C  0.51189767  0.29930521  0.54842582    -0.02200
C2686       C  0.98749928  0.27143947  0.53940940     0.07500
C2687       C  0.95817728  0.25687025  0.54973975    -0.02300
C2688       C  0.95426932  0.26748551  0.56987514    -0.02300
C2689       C  0.97808008  0.29568174  0.57861621     0.07600
C2690       C  0.00700022  0.31156071  0.56775883    -0.02500
Br2691     Br  0.53954851  0.35064768  0.57885168    -0.01000
Br2692     Br  0.55203798  0.32143828  0.53426117    -0.01100
Br2693     Br  0.91670160  0.24165828  0.58612898    -0.01100
Br2694     Br  0.92179422  0.22541177  0.53504252    -0.01100
C2695       C  0.81869496  0.46568519  0.78863152    -0.02200
C2696       C  0.83549666  0.45100550  0.79563580     0.07500
C2697       C  0.86565950  0.46113922  0.78728748    -0.02300
C2698       C  0.87682773  0.48194154  0.76991978    -0.02300
C2699       C  0.85978147  0.49608072  0.76267580     0.07600
C2700       C  0.83132335  0.48876505  0.77273307    -0.02500
Br2701     Br  0.80972016  0.51079560  0.76496414    -0.01000
Br2702     Br  0.77771868  0.45397233  0.80006877    -0.01100
Br2703     Br  0.91308908  0.98746286  0.75429500    -0.01100
Br2704     Br  0.89327910  0.44943296  0.80088533    -0.01100
C2705       C  0.79386131  0.01157699  0.57529211    -0.02200
C2706       C  0.80525647  0.04250033  0.58249826     0.07500
C2707       C  0.80015400  0.06286640  0.56952259    -0.02300
C2708       C  0.78579286  0.05314044  0.54917111    -0.02300
C2709       C  0.77412023  0.02227838  0.54216904     0.07600
C2710       C  0.77857084  0.00170638  0.55528183    -0.02500
Br2711     Br  0.76704141  0.46068335  0.54482375    -0.01000
Br2712     Br  0.80141247  0.98278641  0.59151261    -0.01100
Br2713     Br  0.78622041  0.08339864  0.52978593    -0.01100
Br2714     Br  0.81228346  0.10414009  0.57963806    -0.01100
C2715       C  0.94571580  0.15514851  0.55341343    -0.02200
C2716       C  0.96455380  0.16423525  0.57210212     0.07500
C2717       C  0.99217456  0.19379700  0.57250597    -0.02300
C2718       C  0.00037604  0.21360552  0.55463594    -0.02300
C2719       C  0.97968543  0.20604049  0.53721960     0.07600
C2720       C  0.95276934  0.17615353  0.53634317    -0.02500
Br2721     Br  0.92538571  0.16320602  0.51153705    -0.01000
Br2722     Br  0.91087234  0.11336743  0.55036141    -0.01100
Br2723     Br  0.54174119  0.24933325  0.55305638    -0.01100
Br2724     Br  0.51873489  0.20932763  0.59764577    -0.01100
C2725       C  0.51235906  0.43107045  0.76909630    -0.02200
C2726       C  0.50246360  0.40308793  0.75772704     0.07500
C2727       C  0.50533716  0.37906756  0.76749585    -0.02300
C2728       C  0.51981436  0.38360845  0.78767057    -0.02300
C2729       C  0.53237977  0.41259631  0.79835581     0.07600
C2730       C  0.52676740  0.43559109  0.78947131    -0.02500
Br2731     Br  0.53586341  0.47196709  0.80606326    -0.01000
Br2732     Br  0.00685020  0.46345727  0.75658980    -0.01100
Br2733     Br  0.52158401  0.34915149  0.80016955    -0.01100
Br2734     Br  0.48768491  0.33870603  0.75378360    -0.01100
C2735       C  0.55903653  0.16259153  0.77513176    -0.02200
C2736       C  0.55028721  0.14556520  0.79437392     0.07500
C2737       C  0.52243073  0.11672501  0.79480778    -0.02300
C2738       C  0.50479341  0.10395981  0.77582899    -0.02300
C2739       C  0.51463023  0.12024926  0.75584644     0.07600
C2740       C  0.54266352  0.14956250  0.75582178    -0.02500
Br2741     Br  0.56088712  0.17231006  0.72953960    -0.01000
Br2742     Br  0.59113817  0.20556500  0.77588126    -0.01100
Br2743     Br  0.96707134  0.06410422  0.77852786    -0.01100
Br2744     Br  0.50770106  0.09487626  0.82181178    -0.01100
C2745       C  0.60745768  0.46043296  0.75955166    -0.02200
C2746       C  0.61698437  0.49235908  0.75857424     0.07500
C2747       C  0.62194536  0.00898599  0.77812576    -0.02300
C2748       C  0.61222375  0.49314574  0.79787291    -0.02300
C2749       C  0.60003967  0.46076077  0.79848069     0.07600
C2750       C  0.60101045  0.44539564  0.77960428    -0.02500
Br2751     Br  0.59659560  0.40472960  0.78158381    -0.01000
Br2752     Br  0.60169157  0.43627968  0.73378115    -0.01100
Br2753     Br  0.61609459  0.01647433  0.82373340    -0.01100
Br2754     Br  0.64427760  0.05392290  0.77869352    -0.01100
C2755       C  0.65507278  0.16601197  0.76706611    -0.02200
C2756       C  0.64034831  0.13589851  0.75822346     0.07500
C2757       C  0.61202684  0.11260041  0.76726950    -0.02300
C2758       C  0.60003532  0.11880185  0.78596028    -0.02300
C2759       C  0.61326059  0.14937417  0.79379851     0.07600
C2760       C  0.64106276  0.17294853  0.78430318    -0.02500
Br2761     Br  0.66083063  0.21497575  0.79488924    -0.01000
Br2762     Br  0.69504773  0.19777171  0.75617363    -0.01100
Br2763     Br  0.56818482  0.08458417  0.80202853    -0.01100
Br2764     Br  0.58733234  0.07299121  0.75313291    -0.01100
C2765       C  0.69238827  0.48077004  0.54883636    -0.02200
C2766       C  0.70681874  0.00364306  0.53285421     0.07500
C2767       C  0.69957964  0.02774842  0.53187866    -0.02300
C2768       C  0.68204014  0.03133591  0.54840360    -0.02300
C2769       C  0.67422270  0.01287882  0.56705897     0.07600
C2770       C  0.67729683  0.98591051  0.56644583    -0.02500
Br2771     Br  0.66268824  0.45605066  0.58963021    -0.01000
Br2772     Br  0.69034521  0.44127663  0.54541607    -0.01100
Br2773     Br  0.66655399  0.05987626  0.54476276    -0.01100
Br2774     Br  0.71302103  0.05589703  0.50797705    -0.01100
C2775       C  0.72661574  0.22263859  0.56009758    -0.02200
C2776       C  0.73110694  0.21348590  0.53959888     0.07500
C2777       C  0.73114579  0.18533258  0.53715477    -0.02300
C2778       C  0.72952795  0.16782469  0.55534992    -0.02300
C2779       C  0.72445504  0.17668991  0.57609469     0.07600
C2780       C  0.72516011  0.20549489  0.57835746    -0.02500
Br2781     Br  0.72720033  0.22390043  0.60629906    -0.01000
Br2782     Br  0.71849916  0.25665309  0.56284438    -0.01100
Br2783     Br  0.73699992  0.13348443  0.55112416    -0.01100
Br2784     Br  0.73113104  0.16935713  0.50874193    -0.01100
C2785       C  0.54485581  0.35255771  0.86974563    -0.02200
C2786       C  0.54457137  0.38068659  0.87215159     0.07500
C2787       C  0.52966151  0.38471035  0.89012956    -0.02300
C2788       C  0.51857121  0.36275879  0.90693794    -0.03500
C2789       C  0.52105822  0.33531107  0.90547164     0.07600
C2790       C  0.53324730  0.33003914  0.88617807    -0.02500
Br2791     Br  0.53345918  0.29163133  0.88127754    -0.01000
Br2792     Br  0.56040538  0.34409239  0.84353029    -0.01100
Br2793     Br  0.00151890  0.37264544  0.93193628    -0.01100
Br2794     Br  0.52286684  0.41973165  0.89106029    -0.01100
C2795       C  0.58245448  0.23138779  0.89393546    -0.02200
C2796       C  0.56067580  0.21092130  0.90932730     0.07500
C2797       C  0.54425847  0.17861727  0.90444241    -0.02300
C2798       C  0.55013457  0.16731011  0.88505930    -0.02300
C2799       C  0.57319384  0.18762018  0.87053406     0.07600
C2800       C  0.58780708  0.21978823  0.87449900    -0.02500
Br2801     Br  0.61182451  0.24819192  0.85189056    -0.01000
Br2802     Br  0.60623965  0.27553378  0.89926521    -0.01100
Br2803     Br  0.52384047  0.12431749  0.87730534    -0.01100
Br2804     Br  0.01185633  0.14905545  0.92326662    -0.01100
C2805       C  0.80693787  0.36146215  0.90332525    -0.02200
C2806       C  0.77538089  0.34066281  0.90927071     0.07500
C2807       C  0.75170491  0.33213864  0.89334867    -0.02300
C2808       C  0.75970747  0.34283746  0.87208350    -0.02300
C2809       C  0.79029194  0.36576582  0.86713215     0.07600
C2810       C  0.81406443  0.37395351  0.88242280    -0.02500
Br2811     Br  0.85699970  0.40037172  0.87378412    -0.01000
Br2812     Br  0.84152210  0.37306209  0.92283842    -0.01100
Br2813     Br  0.72962677  0.32379010  0.84924202    -0.01100
Br2814     Br  0.70764034  0.30785518  0.90014566    -0.01100
C2815       C  0.64051609  0.16095215  0.90327667    -0.02200
C2816       C  0.66997765  0.18850618  0.90471569     0.07500
C2817       C  0.68054546  0.20922284  0.88712285    -0.02300
C2818       C  0.66000905  0.20541763  0.87034158    -0.02300
C2819       C  0.62987640  0.17910048  0.86968704     0.07600
C2820       C  0.62175127  0.15555487  0.88502536    -0.02500
Br2821     Br  0.58721653  0.11449692  0.87969862    -0.01000
Br2822     Br  0.62403996  0.13053412  0.92609124    -0.01100
Br2823     Br  0.67423105  0.23604512  0.84797364    -0.01100
Br2824     Br  0.72377748  0.24191666  0.88504066    -0.01100
C2825       C  0.62263821  0.42498455  0.88423670    -0.02200
C2826       C  0.60728775  0.44045856  0.87657278     0.07500
C2827       C  0.61054438  0.46648078  0.88826082    -0.02300
C2828       C  0.62887362  0.47665948  0.90722299    -0.02300
C2829       C  0.64287687  0.45994220  0.91533197     0.07600
C2830       C  0.63762493  0.43279937  0.90433334    -0.02500
Br2831     Br  0.64735130  0.40374586  0.91779129    -0.01000
Br2832     Br  0.62799692  0.39660578  0.86609159    -0.01100
Br2833     Br  0.63523058  0.51393930  0.92150434    -0.01100
Br2834     Br  0.59122922  0.48937454  0.87780717    -0.01100
C2835       C  0.80196131  0.45380117  0.90220514    -0.02200
C2836       C  0.77013690  0.43568870  0.90838749     0.07500
C2837       C  0.74862075  0.41400212  0.89360031    -0.02300
C2838       C  0.75884750  0.41085023  0.87317500    -0.02300
C2839       C  0.79096012  0.42489145  0.86870513     0.07600
C2840       C  0.81254766  0.44736868  0.88289026    -0.02500
Br2841     Br  0.85633525  0.47073645  0.87542392    -0.01000
Br2842     Br  0.83097377  0.48974624  0.91854460    -0.01100
Br2843     Br  0.72897036  0.39139922  0.85030439    -0.01100
Br2844     Br  0.70554803  0.38687274  0.90115529    -0.01100
C2845       C  0.95081118  0.33347886  0.11469606    -0.02200
C2846       C  0.92588969  0.31355440  0.12830179     0.07500
C2847       C  0.90935050  0.28149553  0.12344693    -0.02300
C2848       C  0.91537673  0.26991137  0.10429811    -0.02300
C2849       C  0.93968624  0.28989440  0.09026700     0.07600
C2850       C  0.95738628  0.32191351  0.09570540    -0.02500
Br2851     Br  0.49219941  0.35047498  0.07803236    -0.01000
Br2852     Br  0.97786298  0.37634569  0.12272606    -0.01100
Br2853     Br  0.88899860  0.22663033  0.09710066    -0.01100
Br2854     Br  0.88144947  0.25256367  0.14452315    -0.01100
C2855       C  0.87574247  0.34084712  0.11534633    -0.02200
C2856       C  0.86645406  0.31788330  0.13132923     0.07500
C2857       C  0.83530704  0.29294190  0.13122948    -0.02300
C2858       C  0.81545880  0.28927635  0.11391197    -0.02300
C2859       C  0.82722300  0.30889234  0.09580422     0.07600
C2860       C  0.85723563  0.33561926  0.09699481    -0.02500
Br2861     Br  0.87466405  0.36498573  0.07359300    -0.01000
Br2862     Br  0.91141801  0.38141310  0.11998970    -0.01100
Br2863     Br  0.77152704  0.25869524  0.11568587    -0.01100
Br2864     Br  0.81889257  0.26421217  0.15497138    -0.01100
C2865       C  0.80481837  0.51103527  0.42822729    -0.02200
C2866       C  0.81337517  0.48769929  0.42817149     0.07500
C2867       C  0.81270462  0.47319518  0.44792026    -0.02300
C2868       C  0.79924644  0.47839875  0.46641912    -0.02300
C2869       C  0.78712751  0.49878807  0.46554782     0.07600
C2870       C  0.79350619  0.51758783  0.44724476    -0.02500
Br2871     Br  0.78966084  0.05424961  0.44903655    -0.01000
Br2872     Br  0.80548623  0.03266744  0.40231560    -0.01100
Br2873     Br  0.79734780  0.45720486  0.49277023    -0.01100
Br2874     Br  0.83028596  0.44612713  0.44995232    -0.01100
C2875       C  0.79649614  0.31729930  0.43509543    -0.02200
C2876       C  0.78027851  0.33349924  0.43033261     0.07500
C2877       C  0.76044127  0.33506477  0.44626788    -0.02300
C2878       C  0.75610479  0.31960163  0.46593763    -0.02300
C2879       C  0.76803923  0.29945924  0.46876822     0.07600
C2880       C  0.78975959  0.29976999  0.45399562    -0.02500
Br2881     Br  0.81228563  0.27820693  0.46050965    -0.01000
Br2882     Br  0.83033364  0.32089027  0.41729259    -0.01100
Br2883     Br  0.73812140  0.32954558  0.49016569    -0.01100
Br2884     Br  0.73790497  0.35702801  0.44160659    -0.01100
C2885       C  0.88149259  0.32510434  0.22551226    -0.02200
C2886       C  0.88526002  0.34424846  0.20777211     0.07500
C2887       C  0.87287969  0.36451398  0.20884503    -0.02300
C2888       C  0.85978485  0.36753502  0.22813170    -0.02300
C2889       C  0.86108979  0.35227151  0.24687828     0.07600
C2890       C  0.87134306  0.33038128  0.24540515    -0.02500
Br2891     Br  0.87381131  0.30883588  0.27047732    -0.01000
Br2892     Br  0.88637777  0.28921210  0.22204028    -0.01100
Br2893     Br  0.83905529  0.39194437  0.22857889    -0.01100
Br2894     Br  0.87328415  0.38830583  0.18411009    -0.01100
C2895       C  0.55304379  0.31482055  0.43316092    -0.02200
C2896       C  0.53133041  0.32172863  0.42321344     0.07500
C2897       C  0.50158530  0.31042954  0.43283060    -0.02300
C2898       C  0.49349510  0.29204360  0.45163607    -0.02300
C2899       C  0.51476808  0.28412600  0.46091389     0.07600
C2900       C  0.54505479  0.29704504  0.45216281    -0.02500
Br2901     Br  0.57697110  0.29343001  0.46750437    -0.01000
Br2902     Br  0.59369895  0.32800196  0.42057956    -0.01100
Br2903     Br  0.95329564  0.27852399  0.46498210    -0.01100
Br2904     Br  0.47205909  0.32114174  0.42102510    -0.01100
C2905       C  0.70742901  0.49185609  0.44620546    -0.02200
C2906       C  0.71855607  0.47516324  0.45805163     0.07500
C2907       C  0.71235356  0.44578127  0.45037447    -0.02300
C2908       C  0.69634805  0.43393336  0.43072248    -0.02300
C2909       C  0.68496153  0.45057980  0.41918032     0.07600
C2910       C  0.69075667  0.47969361  0.42701694    -0.02500
Br2911     Br  0.67353966  0.50231015  0.41263720    -0.01000
Br2912     Br  0.71295035  0.53083714  0.45664915    -0.01100
Br2913     Br  0.69058549  0.39526527  0.41934658    -0.01100
Br2914     Br  0.72227842  0.41998206  0.46781094    -0.01100
C2915       C  0.96592140  0.34334484  0.21319156    -0.02200
C2916       C  0.95287601  0.35994177  0.20340221     0.07500
C2917       C  0.96201250  0.39010814  0.21121886    -0.02300
C2918       C  0.98046608  0.40182800  0.23003071    -0.02300
C2919       C  0.99173561  0.38432511  0.24066521     0.07600
C2920       C  0.98519385  0.35546167  0.23156604    -0.02500
Br2921     Br  0.00425836  0.33293112  0.24338126    -0.01000
Br2922     Br  0.95817608  0.30404492  0.20140436    -0.01100
Br2923     Br  0.48930954  0.44148747  0.24154469    -0.01100
Br2924     Br  0.95246890  0.41701987  0.19474829    -0.01100
C2925       C  0.94517884  0.15168323  0.10561006    -0.02200
C2926       C  0.97429242  0.16195064  0.09515162     0.07500
C2927       C  0.99279201  0.14883197  0.10148647    -0.02300
C2928       C  0.98156750  0.12473805  0.11687141    -0.02300
C2929       C  0.95189628  0.11369483  0.12658948     0.07600
C2930       C  0.93489749  0.12882005  0.12180264    -0.02500
Br2931     Br  0.89934408  0.12110069  0.13916111    -0.01000
Br2932     Br  0.91767163  0.16704127  0.09728258    -0.01100
Br2933     Br  0.00774524  0.10771554  0.12512575    -0.01100
Br2934     Br  0.53447116  0.16474356  0.09002392    -0.01100
C2935       C  0.84163987  0.03302490  0.10691497    -0.02200
C2936       C  0.85293868  0.03010235  0.08653041     0.07500
C2937       C  0.88361009  0.03442038  0.08518924    -0.02300
C2938       C  0.90285429  0.04297947  0.10362479    -0.02300
C2939       C  0.89261432  0.04889810  0.12338303     0.07600
C2940       C  0.86125677  0.04227140  0.12514207    -0.02500
Br2941     Br  0.84428081  0.04506746  0.15265630    -0.01000
Br2942     Br  0.79857786  0.02285004  0.11058236    -0.01100
Br2943     Br  0.94207868  0.04340413  0.10225025    -0.01100
Br2944     Br  0.90069176  0.03000359  0.05816695    -0.01100
C2945       C  0.91058650  0.49284592  0.22484067    -0.02200
C2946       C  0.89712979  0.00235058  0.24160350     0.07500
C2947       C  0.88888042  0.02537136  0.23637494    -0.02300
C2948       C  0.89465624  0.03845875  0.21560929    -0.02300
C2949       C  0.90919031  0.02974145  0.19976940     0.07600
C2950       C  0.91493258  0.00531919  0.20400096    -0.02500
Br2951     Br  0.92503044  0.48670222  0.18019066    -0.01000
Br2952     Br  0.92567370  0.46415921  0.22970868    -0.01100
Br2953     Br  0.88002138  0.06665504  0.20791449    -0.01100
Br2954     Br  0.87006631  0.04080409  0.25685587    -0.01100
C2955       C  0.69899048  0.12708211  0.09073980    -0.02200
C2956       C  0.72832080  0.15425437  0.08765363     0.07500
C2957       C  0.74858782  0.16720234  0.10571893    -0.02300
C2958       C  0.73773327  0.15597915  0.12652815    -0.02300
C2959       C  0.70835011  0.12952764  0.12934492     0.07600
C2960       C  0.68852157  0.11607960  0.11160220    -0.02500
Br2961     Br  0.64555451  0.08484242  0.11632188    -0.01000
Br2962     Br  0.67373234  0.10240791  0.06682256    -0.01100
Br2963     Br  0.76206525  0.17829669  0.15141122    -0.01100
Br2964     Br  0.79234394  0.19813774  0.10277157    -0.01100
C2965       C  0.74474822  0.09142392  0.12699210    -0.02200
C2966       C  0.71333110  0.07379629  0.13352594     0.07500
C2967       C  0.69238824  0.04824476  0.12097941    -0.02300
C2968       C  0.70195929  0.04286161  0.10085504    -0.02300
C2969       C  0.73204356  0.06391656  0.09270779     0.07600
C2970       C  0.75367879  0.08795009  0.10613159    -0.02500
Br2971     Br  0.79495488  0.11736152  0.09588206    -0.01000
Br2972     Br  0.77600800  0.11769026  0.14749172    -0.01100
Br2973     Br  0.67428534  0.00517893  0.08546678    -0.01100
Br2974     Br  0.65087001  0.01999714  0.13151508    -0.01100
C2975       C  0.63738461  0.04210323  0.21337811    -0.02200
C2976       C  0.66918850  0.05706336  0.20751717     0.07500
C2977       C  0.68967360  0.05005942  0.21893262    -0.02300
C2978       C  0.67868228  0.02968251  0.23661993    -0.02300
C2979       C  0.64727893  0.01672637  0.24352227     0.07600
C2980       C  0.62691321  0.02376680  0.23201361    -0.02500
Br2981     Br  0.58499312  0.51064455  0.24202708    -0.01000
Br2982     Br  0.60696168  0.04247065  0.19428108    -0.01100
Br2983     Br  0.70680453  0.01869469  0.25055423    -0.01100
Br2984     Br  0.73272739  0.06706476  0.20993016    -0.01100
C2985       C  0.53808602  0.19432430  0.44683128    -0.02200
C2986       C  0.52115111  0.18815325  0.42747239     0.07500
C2987       C  0.49662585  0.19516158  0.42612015    -0.02300
C2988       C  0.99055040  0.20964999  0.44353567    -0.02300
C2989       C  0.51036952  0.21970298  0.46162369     0.07600
C2990       C  0.53356568  0.21092156  0.46348326    -0.02500
Br2991     Br  0.55935700  0.22102915  0.48898127    -0.01000
Br2992     Br  0.56651351  0.17858238  0.45110595    -0.01100
Br2993     Br  0.95311335  0.21266439  0.44335156    -0.01100
Br2994     Br  0.97161778  0.18654148  0.40038183    -0.01100
C2995       C  0.70159981  0.22037248  0.42974631    -0.02200
C2996       C  0.67943067  0.23024163  0.42575727     0.07500
C2997       C  0.67241465  0.24505586  0.44289054    -0.02300
C2998       C  0.68592830  0.24834238  0.46339704    -0.02300
C2999       C  0.70908031  0.24023901  0.46663052     0.07600
C3000       C  0.71589876  0.22516686  0.45007893    -0.02500
Br3001     Br  0.74286276  0.20831585  0.45611861    -0.01000
Br3002     Br  0.71311097  0.19954850  0.40821175    -0.01100
Br3003     Br  0.67018707  0.26061747  0.48776835    -0.01100
Br3004     Br  0.64600136  0.26318005  0.43882972    -0.01100
C3005       C  0.96625885  0.11271673  0.21434500    -0.02200
C3006       C  0.96707350  0.08959520  0.20159010     0.07500
C3007       C  0.98310690  0.07477445  0.20911710    -0.02300
C3008       C  0.49375789  0.07906149  0.23041665    -0.02300
C3009       C  0.99316791  0.10215453  0.24342991     0.07600
C3010       C  0.97951503  0.11925890  0.23511343    -0.02500
Br3011     Br  0.98000060  0.15292085  0.25119540    -0.01000
Br3012     Br  0.94923249  0.13722633  0.20276953    -0.01100
Br3013     Br  0.50734330  0.05162644  0.24181464    -0.01100
Br3014     Br  0.49506401  0.05267726  0.18924900    -0.01100
C3015       C  0.63473305  0.13489017  0.22034538    -0.02200
C3016       C  0.65212188  0.14368777  0.23980292     0.07500
C3017       C  0.68014031  0.14214921  0.24075525    -0.02300
C3018       C  0.68955220  0.13092106  0.22305378    -0.02300
C3019       C  0.67057035  0.11933987  0.20468436     0.07600
C3020       C  0.64416083  0.12320133  0.20285630    -0.02500
Br3021     Br  0.62125813  0.11366422  0.17604796    -0.01000
Br3022     Br  0.59814584  0.13927380  0.21687992    -0.01100
Br3023     Br  0.73030132  0.13447009  0.22309240    -0.01100
Br3024     Br  0.70569216  0.15330085  0.26641859    -0.01100
O3025       O  0.52813564  0.63479854  0.32940052    -0.88700
C3026       C  0.59440235  0.69296575  0.28669992     0.87300
Mg3027     Mg  0.52159124  0.64851740  0.36074523     1.58100
O3028       O  0.61035685  0.63927782  0.31307899    -0.88400
O3029       O  0.53530855  0.59923153  0.31426419    -0.75700
C3030       C  0.66042024  0.72114645  0.40531325     0.92400
O3031       O  0.55560687  0.70813396  0.32330183    -0.75600
O3032       O  0.63409983  0.71986360  0.40525549    -0.83100
Mg3033     Mg  0.53068353  0.66379307  0.30288436     1.58000
C3034       C  0.70001038  0.67338680  0.33714042     0.92300
O3035       O  0.50332973  0.62278799  0.27933195    -0.81300
H3036       H  0.59995461  0.59589675  0.31988674    -0.06700
C3037       C  0.65181784  0.72635255  0.34064733     0.87300
O3038       O  0.54989888  0.62889637  0.37655997    -0.75800
O3039       O  0.57451850  0.66756679  0.29378620    -0.88600
O3040       O  0.68600335  0.67099169  0.31955369    -0.81400
C3041       C  0.63975444  0.65169223  0.25948575     0.92400
C3042       C  0.51200223  0.61235604  0.26354217     0.92300
Mg3043     Mg  0.64308015  0.67096487  0.36507252     1.58000
O3044       O  0.66962625  0.71274785  0.38868740    -0.81300
O3045       O  0.61916514  0.62620182  0.34475289    -0.75600
O3046       O  0.61033914  0.63872451  0.26213551    -0.81400
O3047       O  0.98479920  0.66071448  0.31263001    -0.83100
O3048       O  0.56201443  0.69206917  0.40556470    -0.81400
C3049       C  0.60964559  0.61956066  0.32545684     0.86700
O3050       O  0.59855192  0.66548464  0.37397828    -0.88600
O3051       O  0.64467404  0.69897097  0.33827760    -0.88700
O3052       O  0.63760181  0.73418104  0.35412252    -0.75700
Mg3053     Mg  0.57421948  0.62434379  0.28929481     1.58000
O3054       O  0.65835806  0.66893786  0.27404003    -0.83100
H3055       H  0.50215726  0.58996642  0.33696348    -0.06800
O3056       O  0.56271957  0.69386634  0.35504285    -0.88400
H3057       H  0.57462423  0.73772177  0.34852213    -0.06700
H3058       H  0.58595204  0.62574342  0.38935586    -0.06900
C3059       C  0.56441463  0.71411052  0.34275499     0.86700
C3060       C  0.52080890  0.60734681  0.32723874     0.87300
C3061       C  0.57863806  0.63974601  0.38058037     0.87300
H3062       H  0.67025194  0.74393312  0.33089792    -0.06800
O3063       O  0.62314291  0.70390066  0.29067115    -0.75900
Mg3064     Mg  0.59842431  0.70822839  0.37901775     1.58000
H3065       H  0.58704415  0.70667076  0.27758228    -0.06800
C3066       C  0.97387713  0.66209949  0.33092691     0.92300
O3067       O  0.51379025  0.66313516  0.39338073    -0.83100
C3068       C  0.53263753  0.67967746  0.40799565     0.92400
O3069       O  0.53771747  0.61227102  0.26384040    -0.83100
Mg3070     Mg  0.65121002  0.68444872  0.30688483     1.58200
O3071       O  0.48673840  0.66183446  0.34846348    -0.81400
O3072       O  0.68969518  0.67630084  0.35527128    -0.83100
C3073       C  0.68023341  0.60616032  0.18656955     0.01900
C3074       C  0.68048796  0.57762856  0.18814453     0.01900
C3075       C  0.69130658  0.56759954  0.17061657    -0.18600
C3076       C  0.70183490  0.58500252  0.15175618     0.01900
C3077       C  0.70054466  0.61267498  0.14997246     0.01900
C3078       C  0.69047899  0.62327260  0.16743679    -0.18600
H3079       H  0.69033457  0.64493240  0.16602617     0.04000
H3080       H  0.69148093  0.54592067  0.17164402     0.04000
C3081       C  0.94902958  0.57893118  0.18122873     0.01900
C3082       C  0.92191484  0.54933383  0.17998835     0.01900
C3083       C  0.90533617  0.53981459  0.16055194    -0.18600
C3084       C  0.91380815  0.55990908  0.14268009     0.01900
C3085       C  0.94116138  0.58990694  0.14407614     0.01900
C3086       C  0.95842034  0.59852361  0.16330759    -0.18600
H3087       H  0.97903730  0.62127886  0.16458734     0.04000
H3088       H  0.88464557  0.51707252  0.15969196     0.04000
O3089       O  0.64525268  0.94891862  0.33662044    -0.88700
C3090       C  0.57577838  0.92647182  0.38022709     0.87300
Mg3091     Mg  0.64973147  0.97539313  0.30844812     1.58100
O3092       O  0.56882289  0.86354805  0.34956479    -0.88400
O3093       O  0.64287049  0.90612647  0.34800704    -0.75700
C3094       C  0.51151016  0.89576317  0.26071498     0.92400
O3095       O  0.61014577  0.98671663  0.34880883    -0.75600
O3096       O  0.53519716  0.92306089  0.26144105    -0.83100
Mg3097     Mg  0.63944552  0.96827719  0.36583561     1.58000
C3098       C  0.98069240  0.80407561  0.32136803     0.92300
O3099       O  0.67104018  0.95398203  0.38339916    -0.81300
H3100       H  0.58583022  0.83656981  0.33959250    -0.06700
C3101       C  0.51803011  0.90326847  0.32625535     0.87300
O3102       O  0.62798021  0.93073639  0.28777486    -0.75800
O3103       O  0.59779997  0.92525383  0.37179618    -0.88600
O3104       O  0.49321668  0.81444177  0.33967862    -0.81400
C3105       C  0.54031513  0.84071168  0.40315008     0.92400
C3106       C  0.66485683  0.93709899  0.39996325     0.92300
Mg3107     Mg  0.53589582  0.86526578  0.29794291     1.58000
O3108       O  0.50513934  0.87707504  0.27636986    -0.81300
O3109       O  0.56433895  0.84746117  0.31621629    -0.75600
O3110       O  0.56824884  0.86307438  0.40143999    -0.81400
O3111       O  0.68350219  0.51408979  0.36074408    -0.83100
O3112       O  0.60822945  0.97325561  0.26308353    -0.81400
C3113       C  0.57326871  0.84848902  0.33550478     0.86700
O3114       O  0.57752955  0.90919843  0.29188668    -0.88600
O3115       O  0.52874354  0.88549199  0.32691129    -0.88700
O3116       O  0.52990389  0.92699125  0.31413676    -0.75700
Mg3117     Mg  0.60418245  0.88601044  0.37411187     1.58000
O3118       O  0.52073236  0.83393778  0.38785642    -0.83100
H3119       H  0.67350486  0.93406693  0.32522280    -0.06800
O3120       O  0.60449903  0.97065035  0.31528526    -0.88400
H3121       H  0.58686707  0.99673460  0.32617114    -0.06700
H3122       H  0.59681210  0.89076627  0.27279425    -0.06900
C3123       C  0.60000401  0.98523636  0.32974628     0.86700
C3124       C  0.65480086  0.93014508  0.33613705     0.87300
C3125       C  0.60036693  0.90934268  0.28362117     0.87300
H3126       H  0.49831796  0.89871127  0.33634384    -0.06800
O3127       O  0.54773713  0.90609346  0.37628230    -0.75900
Mg3128     Mg  0.57031062  0.94814037  0.28936602     1.58000
H3129       H  0.58046794  0.94563195  0.39081891    -0.06800
C3130       C  0.69300631  0.53131693  0.34435161     0.92300
O3131       O  0.65379255  0.00334560  0.27904209    -0.83100
C3132       C  0.63588672  0.99652831  0.26288004     0.92400
O3133       O  0.64043645  0.91051955  0.40078176    -0.83100
Mg3134     Mg  0.52450690  0.86081688  0.35665155     1.58200
O3135       O  0.67922444  0.52263237  0.32622149    -0.81400
O3136       O  0.99166773  0.81919143  0.30406530    -0.83100
O3137       O  0.80941530  0.86018170  0.34469977    -0.88700
C3138       C  0.86422772  0.93411225  0.38293063     0.87300
Mg3139     Mg  0.82625837  0.85239393  0.31517789     1.58100
O3140       O  0.80559441  0.94108319  0.35520617    -0.88400
O3141       O  0.77181607  0.86683514  0.35754600    -0.75700
C3142       C  0.88749501  0.98535006  0.26291547     0.92400
O3143       O  0.88361780  0.89207494  0.35257659    -0.75600
O3144       O  0.89107543  0.96212137  0.26618333    -0.83100
Mg3145     Mg  0.83794284  0.86752081  0.37215875     1.58000
C3146       C  0.82986368  0.52501304  0.32344739     0.92300
O3147       O  0.79415113  0.84110024  0.39320333    -0.81300
H3148       H  0.76068587  0.92568723  0.34840653    -0.06700
C3149       C  0.89277355  0.98641535  0.32796704     0.87300
O3150       O  0.80269927  0.87489057  0.29644513    -0.75800
O3151       O  0.83936914  0.91163115  0.37698723    -0.88600
O3152       O  0.83105139  0.01518225  0.34235126    -0.81400
C3153       C  0.81948759  0.97599920  0.40763279     0.92400
C3154       C  0.78678785  0.85114042  0.40977390     0.92300
Mg3155     Mg  0.83409841  0.96758602  0.30178541     1.58000
O3156       O  0.87368855  0.99298060  0.27695668    -0.81300
O3157       O  0.78990660  0.94328570  0.32278738    -0.75600
O3158       O  0.80926407  0.94699072  0.40601706    -0.81400
O3159       O  0.83720582  0.82108763  0.36675432    -0.83100
O3160       O  0.86654665  0.89154351  0.27039612    -0.81400
C3161       C  0.78445421  0.93648258  0.34258351     0.86700
O3162       O  0.83477054  0.92493209  0.29755669    -0.88600
O3163       O  0.86456664  0.97738340  0.32909930    -0.88700
O3164       O  0.90301970  0.97157305  0.31726392    -0.75700
Mg3165     Mg  0.79460831  0.90840852  0.38101158     1.58000
O3166       O  0.83261099  0.99407407  0.39178163    -0.83100
H3167       H  0.76470535  0.83245564  0.33657711    -0.06800
O3168       O  0.86875141  0.89675460  0.32037557    -0.88400
H3169       H  0.91342415  0.91103161  0.32735048    -0.06700
H3170       H  0.79466350  0.90623088  0.28119148    -0.06900
C3171       C  0.88958427  0.90027498  0.33299333     0.86700
C3172       C  0.78139788  0.85214417  0.34590335     0.87300
C3173       C  0.81033157  0.90238771  0.29111456     0.87300
H3174       H  0.90899784  0.00684751  0.33687579    -0.06800
O3175       O  0.87181257  0.96165183  0.37764710    -0.75900
Mg3176     Mg  0.88059676  0.92966641  0.29458312     1.58000
H3177       H  0.88019204  0.93020709  0.39248088    -0.06800
C3178       C  0.84325359  0.81078532  0.34968469     0.92300
O3179       O  0.84253346  0.84366671  0.28322760    -0.83100
C3180       C  0.85578863  0.86266797  0.26795033     0.92400
O3181       O  0.78630312  0.87640672  0.40913234    -0.83100
Mg3182     Mg  0.84859706  0.98509307  0.35925365     1.58200
O3183       O  0.84537129  0.82323395  0.33139763    -0.81400
O3184       O  0.83252536  0.51233473  0.30633856    -0.83100
C3185       C  0.92960082  0.84579102  0.18529763     0.01900
C3186       C  0.89852070  0.84028185  0.18731118     0.01900
C3187       C  0.87857268  0.82972416  0.16960427    -0.18600
C3188       C  0.88774163  0.82350306  0.14986198     0.01900
C3189       C  0.91746064  0.82561382  0.14797995     0.01900
C3190       C  0.93831187  0.83761453  0.16562465    -0.18600
H3191       H  0.96142169  0.84039620  0.16406830     0.04000
H3192       H  0.85538563  0.82682335  0.17113521     0.04000
O3193       O  0.71977771  0.52774333  0.00720430    -0.88700
C3194       C  0.74342838  0.97830124  0.04775977     0.87300
Mg3195     Mg  0.68969745  0.50579561  0.97998593     1.58100
O3196       O  0.80581169  0.53199912  0.01482448    -0.88400
O3197       O  0.76544398  0.56613941  0.01686072    -0.75700
C3198       C  0.75936296  0.94237882  0.92899407     0.92400
O3199       O  0.67902600  0.95606007  0.01989946    -0.75600
O3200       O  0.73357346  0.94213623  0.93012063    -0.83100
Mg3201     Mg  0.70250791  0.00407510  0.03693405     1.58000
C3202       C  0.86012640  0.50035154  0.98350911     0.92300
O3203       O  0.72255143  0.54994454  0.05568620    -0.81300
H3204       H  0.83526328  0.57514506  0.00480539    -0.06700
C3205       C  0.75834410  0.94217387  0.99315536     0.87300
O3206       O  0.73332718  0.52701605  0.95772696    -0.75800
O3207       O  0.74545343  0.00218640  0.04026590    -0.88600
O3208       O  0.85254801  0.50570493  0.00202776    -0.81400
C3209       C  0.83330555  0.52400669  0.06682128     0.92400
C3210       C  0.74155368  0.55811224  0.07134043     0.92300
Mg3211     Mg  0.79662973  0.49500478  0.96407495     1.58000
O3212       O  0.77703684  0.94962290  0.94528492    -0.81300
O3213       O  0.82045229  0.54248250  0.98118476    -0.75600
O3214       O  0.81537825  0.53554493  0.06545967    -0.81400
O3215       O  0.65751127  0.00698392  0.03352815    -0.83100
O3216       O  0.68813797  0.96785846  0.93409939    -0.81400
C3217       C  0.82126004  0.55086040  0.00064160     0.86700
O3218       O  0.75362055  0.49692723  0.96100975    -0.88600
O3219       O  0.77805735  0.97010645  0.99306856    -0.88700
O3220       O  0.73319554  0.93152621  0.98236881    -0.75700
Mg3221     Mg  0.78766096  0.54690228  0.04076468     1.58000
O3222       O  0.83530074  0.50815640  0.05143278    -0.83100
H3223       H  0.73622200  0.57090442  0.99625687    -0.06800
O3224       O  0.69334902  0.96557983  0.98610639    -0.88400
H3225       H  0.66521277  0.92252157  0.99689229    -0.06700
H3226       H  0.77247437  0.53413298  0.94183737    -0.06900
C3227       C  0.67860865  0.94699652  0.00062351     0.86700
C3228       C  0.74005074  0.55544625  0.00632354     0.87300
C3229       C  0.75409395  0.51987489  0.95302699     0.87300
H3230       H  0.76243515  0.92650376  0.00277116    -0.06800
O3231       O  0.76234707  0.96918078  0.04227069    -0.75900
Mg3232     Mg  0.71235518  0.95269428  0.95914985     1.58000
H3233       H  0.72470741  0.96449026  0.05886244    -0.06800
C3234       C  0.63803820  0.99668879  0.01812354     0.92300
O3235       O  0.65785800  0.98231116  0.95099863    -0.83100
C3236       C  0.66411363  0.97111761  0.93450621     0.92400
O3237       O  0.76759603  0.55905289  0.06939656    -0.83100
Mg3238     Mg  0.80634268  0.98923220  0.02096783     1.58200
O3239       O  0.64438331  0.98801706  0.00036840    -0.81400
O3240       O  0.84168469  0.49254866  0.96757640    -0.83100
O3241       O  0.77464546  0.80875038  0.99628078    -0.88700
C3242       C  0.77135773  0.74398781  0.95413539     0.87300
Mg3243     Mg  0.79364278  0.81314062  0.02765522     1.58100
O3244       O  0.70001959  0.72531376  0.97947688    -0.88400
O3245       O  0.73088161  0.79930996  0.98152668    -0.75700
C3246       C  0.73439322  0.67320251  0.06759966     0.92400
O3247       O  0.82491240  0.78603863  0.98981263    -0.75600
O3248       O  0.75930046  0.69903760  0.06631522    -0.83100
Mg3249     Mg  0.80257366  0.80861360  0.96988987     1.58000
C3250       C  0.64277255  0.63564154  0.00064977     0.92300
O3251       O  0.78628051  0.83400201  0.94607286    -0.81300
H3252       H  0.66478806  0.73334929  0.98528516    -0.06700
C3253       C  0.74660449  0.68481619  0.00411482     0.87300
O3254       O  0.74480913  0.78249724  0.04197571    -0.75800
O3255       O  0.76464598  0.76345957  0.96076078    -0.88600
O3256       O  0.65488693  0.65144605  0.98375006    -0.81400
C3257       C  0.68740560  0.69852664  0.92523373     0.92400
C3258       C  0.76757348  0.82365202  0.93010993     0.92300
Mg3259     Mg  0.69685902  0.68989096  0.02970703     1.58000
O3260       O  0.71305336  0.66497982  0.05342254    -0.81300
O3261       O  0.67477816  0.71308367  0.00996018    -0.75600
O3262       O  0.70333787  0.72734758  0.92902502    -0.81400
O3263       O  0.84258460  0.85531750  0.98107747    -0.83100
O3264       O  0.79595348  0.77006874  0.07082245    -0.81400
C3265       C  0.67918822  0.72420134  0.99111618     0.86700
O3266       O  0.73491306  0.73446593  0.03898181    -0.88600
O3267       O  0.72448660  0.68971773  0.00313217    -0.88700
O3268       O  0.76964848  0.70064981  0.01636023    -0.75700
Mg3269     Mg  0.72046399  0.76157562  0.95632480     1.58000
O3270       O  0.68388504  0.67887986  0.93938347    -0.83100
H3271       H  0.75309416  0.83236032  0.00439002    -0.06800
O3272       O  0.79931244  0.77385728  0.02015764    -0.88400
H3273       H  0.83528709  0.76678240  0.01491785    -0.06700
H3274       H  0.70565952  0.74549380  0.05370765    -0.06900
C3275       C  0.82056692  0.77540268  0.00877825     0.86700
C3276       C  0.75322403  0.81454008  0.99443484     0.87300
C3277       C  0.72770886  0.75364280  0.04548172     0.87300
H3278       H  0.74689462  0.66749241  0.99369540    -0.06800
O3279       O  0.75358337  0.71513562  0.95737311    -0.75900
Mg3280     Mg  0.77977585  0.73690198  0.04249985     1.58000
H3281       H  0.79331766  0.75177467  0.94587765    -0.06800
C3282       C  0.85592464  0.86285086  0.99942116     0.92300
O3283       O  0.81347448  0.81863010  0.06090664    -0.83100
C3284       C  0.81067609  0.79893102  0.07487381     0.92400
O3285       O  0.74314357  0.79733288  0.93099928    -0.83100
Mg3286     Mg  0.70469124  0.68517341  0.97215219     1.58200
O3287       O  0.84334892  0.84742227  0.01638906    -0.81400
O3288       O  0.65658726  0.64304290  0.01881863    -0.83100
O3289       O  0.53026624  0.72182522  0.99638622    -0.88700
C3290       C  0.97165953  0.72809273  0.95333474     0.87300
Mg3291     Mg  0.51425199  0.70114702  0.02799763     1.58100
O3292       O  0.52826937  0.79821405  0.97767815    -0.88400
O3293       O  0.56654029  0.76170600  0.97920260    -0.75700
C3294       C  0.94893505  0.77719849  0.07133526     0.92400
O3295       O  0.95735399  0.67762011  0.99112975    -0.75600
O3296       O  0.94904650  0.75166525  0.07306050    -0.83100
Mg3297     Mg  0.00196525  0.69471353  0.97005309     1.58000
C3298       C  0.49800603  0.85790459  0.00033597     0.92300
O3299       O  0.54337659  0.70700713  0.94607241    -0.81300
H3300       H  0.57268892  0.82962472  0.98410726    -0.06700
C3301       C  0.94134932  0.75729106  0.00777884     0.87300
O3302       O  0.53701339  0.74960979  0.04375157    -0.75800
O3303       O  0.99774728  0.73368745  0.95936244    -0.88600
O3304       O  0.49959441  0.84463069  0.98329876    -0.81400
C3305       C  0.51415239  0.81441082  0.92460172     0.92400
C3306       C  0.55213841  0.72320549  0.92886137     0.92300
Mg3307     Mg  0.49881932  0.80428714  0.03018372     1.58000
O3308       O  0.95805099  0.79305394  0.05403896    -0.81300
O3309       O  0.54285003  0.82133521  0.00904977    -0.75600
O3310       O  0.52742700  0.79811584  0.92654768    -0.81400
O3311       O  0.00695825  0.65368981  0.98129647    -0.83100
O3312       O  0.97672540  0.70500325  0.07536244    -0.81400
C3313       C  0.54881365  0.81702024  0.98982987     0.86700
O3314       O  0.50270220  0.76496154  0.04080544    -0.88600
O3315       O  0.96917529  0.77609525  0.00453976    -0.88700
O3316       O  0.93303255  0.73668898  0.02224083    -0.75700
Mg3317     Mg  0.54167613  0.77551206  0.95365151     1.58000
O3318       O  0.49696475  0.81505346  0.93951385    -0.83100
H3319       H  0.57554086  0.74002536  0.00347960    -0.06800
O3320       O  0.97071059  0.70014256  0.02284209    -0.88400
H3321       H  0.92641276  0.66957352  0.01534312    -0.06700
H3322       H  0.54360599  0.79055350  0.05571392    -0.06900
C3323       C  0.95053461  0.68194108  0.01017610     0.86700
C3324       C  0.55808765  0.74093716  0.99356293     0.87300
C3325       C  0.52820539  0.76929302  0.04726089     0.87300
H3326       H  0.92377054  0.75823193  0.99803383    -0.06800
O3327       O  0.96130273  0.74627031  0.95766081    -0.75900
Mg3328     Mg  0.95890669  0.72392943  0.04749810     1.58000
H3329       H  0.95682056  0.70659398  0.94494404    -0.06800
C3330       C  0.00049698  0.63993881  0.99937212     0.92300
O3331       O  0.99632081  0.67803964  0.06010816    -0.83100
C3332       C  0.98351070  0.68332651  0.07604622     0.92400
O3333       O  0.55200991  0.74875921  0.92776493    -0.83100
Mg3334     Mg  0.98293384  0.79480504  0.97253312     1.58200
O3335       O  0.99536988  0.65146223  0.01606772    -0.81400
O3336       O  0.49459552  0.84572127  0.01883303    -0.83100
O3337       O  0.63332030  0.51972532  0.67003343    -0.88700
C3338       C  0.69750022  0.59075208  0.70808007     0.87300
Mg3339     Mg  0.64286395  0.51334481  0.63719314     1.58100
O3340       O  0.63766498  0.60138028  0.68655132    -0.88400
O3341       O  0.59933136  0.52750328  0.68748056    -0.75700
C3342       C  0.71232833  0.65390124  0.59403909     0.92400
O3343       O  0.70906165  0.54881980  0.66933730    -0.75600
O3344       O  0.71406716  0.62924545  0.59339358    -0.83100
Mg3345     Mg  0.66906180  0.52622641  0.69343944     1.58000
C3346       C  0.66324481  0.68996681  0.66287902     0.92300
O3347       O  0.63685087  0.50198051  0.72245120    -0.81300
H3348       H  0.59253862  0.58895956  0.68411047    -0.06700
C3349       C  0.72081757  0.64384486  0.65639436     0.87300
O3350       O  0.62074560  0.54084396  0.62392671    -0.75800
O3351       O  0.67210510  0.56947234  0.70178973    -0.88600
O3352       O  0.66272417  0.67626464  0.68015834    -0.81400
C3353       C  0.65316419  0.62920052  0.73863693     0.92400
C3354       C  0.62436001  0.50925694  0.73770592     0.92300
Mg3355     Mg  0.66056076  0.63316011  0.63459040     1.58000
O3356       O  0.69733285  0.65837728  0.60897136    -0.81300
O3357       O  0.61825921  0.60862338  0.65721427    -0.75600
O3358       O  0.65297477  0.60367120  0.73698943    -0.81400
O3359       O  0.66513967  0.98071903  0.68349324    -0.83100
O3360       O  0.68138399  0.55432658  0.59012038    -0.81400
C3361       C  0.61523892  0.59935294  0.67649865     0.86700
O3362       O  0.65685204  0.58974195  0.62511079    -0.88600
O3363       O  0.69383567  0.63858510  0.65925335    -0.88700
O3364       O  0.72707858  0.62825983  0.64306272    -0.75700
Mg3365     Mg  0.62876952  0.56724567  0.71072119     1.58000
O3366       O  0.66274090  0.64845633  0.72332630    -0.83100
H3367       H  0.58732230  0.49292868  0.66565519    -0.06800
O3368       O  0.68809727  0.55460249  0.64034616    -0.88400
H3369       H  0.73269919  0.56497862  0.64130659    -0.06700
H3370       H  0.61478810  0.57560798  0.61234292    -0.06900
C3371       C  0.71070369  0.55606908  0.64972948     0.86700
C3372       C  0.60597363  0.51222873  0.67417094     0.87300
C3373       C  0.63044078  0.56917957  0.61986387     0.87300
H3374       H  0.73945016  0.66154113  0.66596863    -0.06800
O3375       O  0.70498091  0.61895249  0.70551803    -0.75900
Mg3376     Mg  0.70029409  0.59058612  0.61761039     1.58000
H3377       H  0.71376213  0.58528362  0.71576531    -0.06800
C3378       C  0.66255000  0.96820035  0.66513042     0.92300
O3379       O  0.65405080  0.50645896  0.60298556    -0.83100
C3380       C  0.66857312  0.52495362  0.58766438     0.92400
O3381       O  0.61981732  0.53210955  0.73613005    -0.83100
Mg3382     Mg  0.68057991  0.64413339  0.69112367     1.58200
O3383       O  0.65841342  0.47927962  0.64782035    -0.81400
O3384       O  0.66484335  0.67954694  0.64443594    -0.83100
C3385       C  0.60949153  0.67312073  0.85067904     0.01900
C3386       C  0.58203574  0.67559596  0.85095819     0.01900
C3387       C  0.56329070  0.66702227  0.83223010    -0.18600
C3388       C  0.57173930  0.65673805  0.81338331     0.01900
C3389       C  0.60033592  0.65635645  0.81321874     0.01900
C3390       C  0.61802071  0.66354746  0.83197686    -0.18600
H3391       H  0.63919948  0.66200416  0.83194532     0.04000
H3392       H  0.54199998  0.66828140  0.83233462     0.04000
C3393       C  0.58884966  0.93072265  0.85609999     0.01900
C3394       C  0.55792036  0.90517817  0.85512410     0.01900
C3395       C  0.53961064  0.90118771  0.83679900    -0.18600
C3396       C  0.55228355  0.91944856  0.81825712     0.01900
C3397       C  0.58448641  0.94256692  0.81831552     0.01900
C3398       C  0.60203754  0.94818620  0.83734425    -0.18600
H3399       H  0.62630789  0.96634232  0.83759576     0.04000
H3400       H  0.51540020  0.88288214  0.83676872     0.04000
O3401       O  0.97001816  0.60967575  0.67015553    -0.88700
C3402       C  0.90559338  0.59961139  0.71556337     0.87300
Mg3403     Mg  0.97145417  0.62689010  0.63827621     1.58100
O3404       O  0.89337712  0.53144444  0.68878830    -0.88400
O3405       O  0.96804604  0.56920996  0.68503421    -0.75700
C3406       C  0.82682502  0.55442082  0.60142485     0.92400
O3407       O  0.93941304  0.65349488  0.67692524    -0.75600
O3408       O  0.85181933  0.58055305  0.59998093    -0.83100
Mg3409     Mg  0.96759427  0.63722559  0.69661310     1.58000
C3410       C  0.80231672  0.96982093  0.66870372     0.92300
O3411       O  0.99697922  0.62880380  0.72179812    -0.81300
H3412       H  0.90716325  0.50131880  0.68011250    -0.06700
C3413       C  0.84333663  0.57080400  0.66515154     0.87300
O3414       O  0.94328598  0.57842052  0.62383234    -0.75800
O3415       O  0.92650064  0.59621381  0.70736200    -0.88600
O3416       O  0.81779765  0.98238781  0.68563920    -0.81400
C3417       C  0.86966955  0.51540730  0.74307663     0.92400
C3418       C  0.99337253  0.60925670  0.73636116     0.92300
Mg3419     Mg  0.85302761  0.52561268  0.63886027     1.58000
O3420       O  0.82112722  0.53727061  0.61797417    -0.81300
O3421       O  0.88266561  0.50895585  0.65710897    -0.75600
O3422       O  0.89812321  0.53629531  0.74070984    -0.81400
O3423       O  0.51155539  0.67990107  0.68430447    -0.83100
O3424       O  0.92475085  0.62845344  0.59567862    -0.81400
C3425       C  0.89479264  0.51331842  0.67573349     0.86700
O3426       O  0.89438249  0.56555174  0.62773365    -0.88600
O3427       O  0.85213955  0.55157812  0.66629212    -0.88700
O3428       O  0.85493818  0.59251882  0.65142518    -0.75700
Mg3429     Mg  0.93126573  0.55536674  0.71154873     1.58000
O3430       O  0.84948646  0.50935459  0.72854236    -0.83100
H3431       H  0.99846298  0.59381460  0.66122056    -0.06800
O3432       O  0.92964947  0.62989705  0.64588278    -0.88400
H3433       H  0.91710455  0.66150763  0.65262601    -0.06700
H3434       H  0.90734998  0.53892175  0.61164159    -0.06900
C3435       C  0.92856158  0.64904442  0.65800379     0.86700
C3436       C  0.97995261  0.59141707  0.67178088     0.87300
C3437       C  0.91451917  0.56028558  0.62035862     0.87300
H3438       H  0.82573830  0.56937291  0.67622311    -0.06800
O3439       O  0.87703281  0.57956286  0.71301572    -0.75900
Mg3440     Mg  0.89113915  0.60685180  0.62401394     1.58000
H3441       H  0.91172093  0.62047475  0.72463824    -0.06800
C3442       C  0.52120063  0.69044205  0.66544494     0.92300
O3443       O  0.97393374  0.64611012  0.60528179    -0.83100
C3444       C  0.95390872  0.64445463  0.59184011     0.92400
O3445       O  0.97079029  0.58151853  0.73538409    -0.83100
Mg3446     Mg  0.85080174  0.53147577  0.69711659     1.58200
O3447       O  0.00713348  0.67587965  0.64853993    -0.81400
O3448       O  0.80983550  0.98295331  0.65045275    -0.83100
O3449       O  0.85950400  0.80816597  0.65950962    -0.88700
C3450       C  0.93260021  0.85930458  0.61889852     0.87300
Mg3451     Mg  0.85023575  0.82669617  0.68773725     1.58100
O3452       O  0.93879687  0.80365214  0.65014978    -0.88400
O3453       O  0.86484251  0.76962473  0.64734914    -0.75700
C3454       C  0.98629289  0.89680030  0.73671543     0.92400
O3455       O  0.88874928  0.88124903  0.64796989    -0.75600
O3456       O  0.96165024  0.89872262  0.73485122    -0.83100
Mg3457     Mg  0.86547114  0.83398693  0.63069462     1.58000
C3458       C  0.52403658  0.83132930  0.68209089     0.92300
O3459       O  0.83928511  0.78880658  0.61220585    -0.81300
H3460       H  0.92206997  0.76032810  0.66087774    -0.06700
C3461       C  0.98338497  0.89356304  0.67139310     0.87300
O3462       O  0.87502200  0.80799760  0.70899469    -0.75800
O3463       O  0.91028623  0.83631232  0.62707112    -0.88600
O3464       O  0.01179424  0.82711440  0.66343002    -0.81400
C3465       C  0.97112588  0.80932481  0.59796961     0.92400
C3466       C  0.84903103  0.78317379  0.59485882     0.92300
Mg3467     Mg  0.96820078  0.84086450  0.70169766     1.58000
O3468       O  0.99567928  0.88603150  0.72155843    -0.81300
O3469       O  0.94206751  0.79352848  0.68403208    -0.75600
O3470       O  0.94533849  0.80924817  0.59812288    -0.81400
O3471       O  0.81802143  0.83080229  0.63421286    -0.83100
O3472       O  0.88849632  0.87324961  0.73187359    -0.81400
C3473       C  0.93392616  0.78481935  0.66466867     0.86700
O3474       O  0.92473375  0.84090120  0.70577149    -0.88600
O3475       O  0.97619523  0.86590187  0.67210808    -0.88700
O3476       O  0.96857385  0.90408112  0.68213069    -0.75700
Mg3477     Mg  0.90647230  0.79183211  0.62353207     1.58000
O3478       O  0.98950359  0.81960194  0.61406078    -0.83100
H3479       H  0.83142583  0.76435717  0.66888425    -0.06800
O3480       O  0.89332216  0.87017996  0.68127946    -0.88400
H3481       H  0.90621470  0.91337044  0.67192375    -0.06700
H3482       H  0.90852562  0.80437784  0.72540687    -0.06900
C3483       C  0.89627851  0.88924521  0.66744941     0.86700
C3484       C  0.85098499  0.78018173  0.65904754     0.87300
C3485       C  0.90320105  0.81749410  0.71404347     0.87300
H3486       H  0.00252484  0.90916029  0.66117681    -0.06800
O3487       O  0.96059493  0.86606995  0.62277089    -0.75900
Mg3488     Mg  0.92760128  0.88540559  0.70667665     1.58000
H3489       H  0.92826592  0.87382720  0.60819775    -0.06800
C3490       C  0.80520675  0.83493816  0.65061098     0.92300
O3491       O  0.84079385  0.84619359  0.71784929    -0.83100
C3492       C  0.85893727  0.86184609  0.73312753     0.92400
O3493       O  0.87435846  0.78246431  0.59461566    -0.83100
Mg3494     Mg  0.98323490  0.84417756  0.64392624     1.58200
O3495       O  0.81700571  0.83874022  0.66936098    -0.81400
O3496       O  0.51393482  0.83977855  0.69812255    -0.83100
C3497       C  0.79679262  0.88517708  0.84739314     0.01900
C3498       C  0.80128970  0.91539305  0.84920579     0.01900
C3499       C  0.81472999  0.93613168  0.83229459    -0.18600
C3500       C  0.82215531  0.92714677  0.81276810     0.01900
C3501       C  0.81614094  0.89599257  0.81031602     0.01900
C3502       C  0.80287955  0.87533172  0.82773933    -0.18600
H3503       H  0.79851974  0.85176803  0.82633531     0.04000
H3504       H  0.81911871  0.95964790  0.83431450     0.04000
C3505       C  0.50588928  0.76380167  0.48060430     0.01900
C3506       C  0.50332541  0.73395188  0.48052923     0.01900
C3507       C  0.49393381  0.71624711  0.49926843    -0.18600
C3508       C  0.98827960  0.72719001  0.51849305     0.01900
C3509       C  0.99226495  0.75761275  0.51924883     0.01900
C3510       C  0.50043192  0.77509438  0.50008626    -0.18600
H3511       H  0.50273328  0.79794332  0.50034997     0.04000
H3512       H  0.49154655  0.69332609  0.49898986     0.04000
C3513       C  0.75761391  0.77789439  0.48700017     0.01900
C3514       C  0.72852873  0.74999148  0.48651238     0.01900
C3515       C  0.71989221  0.72955796  0.50400983    -0.18600
C3516       C  0.74048864  0.73582352  0.52133615     0.01900
C3517       C  0.77010616  0.76330287  0.52123034     0.01900
C3518       C  0.77797680  0.78418497  0.50424304    -0.18600
H3519       H  0.80060408  0.80516715  0.50410527     0.04000
H3520       H  0.69759815  0.70822755  0.50377790     0.04000
C3521       C  0.73375878  0.98736641  0.47942795     0.01900
C3522       C  0.76620073  0.99918812  0.48301308     0.01900
C3523       C  0.77866373  0.01125815  0.50346978    -0.18600
C3524       C  0.75987540  0.51188158  0.52034918     0.01900
C3525       C  0.72776144  0.50120122  0.51641585     0.01900
C3526       C  0.71512053  0.98848757  0.49622283    -0.18600
H3527       H  0.69048326  0.97985491  0.49338025     0.04000
H3528       H  0.80327980  0.01993111  0.50638486     0.04000
O3529       O  0.50920162  0.95853582  0.01842871    -0.88700
C3530       C  0.56082488  0.52289756  0.97269810     0.87300
Mg3531     Mg  0.96069856  0.92459723  0.01389169     1.58100
O3532       O  0.53681659  0.55141746  0.01680663    -0.88400
O3533       O  0.53864716  0.49473928  0.04131331    -0.75700
C3534       C  0.88996119  0.00054468  0.98165948     0.92400
O3535       O  0.50268109  0.95024362  0.96683564    -0.75600
O3536       O  0.88951784  0.97519633  0.97755430    -0.83100
Mg3537     Mg  0.54072132  0.96285928  0.99242685     1.58000
C3538       C  0.49888847  0.60983033  0.00095070     0.92300
O3539       O  0.58375428  0.97311456  0.01261225    -0.81300
H3540       H  0.53725503  0.56073121  0.04815342    -0.06700
C3541       C  0.98067137  0.53071296  0.96300246     0.87300
O3542       O  0.94403821  0.95383606  0.03230397    -0.75800
O3543       O  0.55527344  0.51139808  0.99083865    -0.88600
O3544       O  0.52370740  0.60854141  0.99750948    -0.81400
C3545       C  0.61191909  0.60784522  0.99924904     0.92400
C3546       C  0.60832682  0.99705886  0.01926819     0.92300
Mg3547     Mg  0.95798147  0.53518380  0.00777916     1.58000
O3548       O  0.91476009  0.52487461  0.98775436    -0.81300
O3549       O  0.99613206  0.54809544  0.03323811    -0.75600
O3550       O  0.60876865  0.58297495  0.00727199    -0.81400
O3551       O  0.52600966  0.91205328  0.99542717    -0.83100
O3552       O  0.88997006  0.91548566  0.99327230    -0.81400
C3553       C  0.52426364  0.55403075  0.03326999     0.86700
O3554       O  0.94354817  0.98669695  0.00940481    -0.88600
O3555       O  0.98930249  0.53924041  0.98161557    -0.88700
O3556       O  0.95957466  0.00324616  0.95879286    -0.75700
Mg3557     Mg  0.57144651  0.53697757  0.02098806     1.58000
O3558       O  0.58916747  0.60966088  0.99122323    -0.83100
H3559       H  0.50606311  0.95097300  0.05012054    -0.06800
O3560       O  0.96185725  0.94673942  0.98318754    -0.88400
H3561       H  0.96172044  0.93793238  0.95177223    -0.06700
H3562       H  0.92897258  0.98399559  0.03977630    -0.06900
C3563       C  0.97456565  0.94438622  0.96671688     0.86700
C3564       C  0.51750077  0.96705266  0.03709283     0.87300
C3565       C  0.93809361  0.97511385  0.02751644     0.87300
H3566       H  0.99190077  0.54675814  0.94992387    -0.06800
O3567       O  0.55470813  0.54400023  0.96774995    -0.75900
Mg3568     Mg  0.92714721  0.96110539  0.97933438     1.58000
H3569       H  0.57010199  0.51404321  0.96055592    -0.06800
C3570       C  0.49964591  0.88805008  0.99865968     0.92300
O3571       O  0.90954411  0.88829929  0.00856133    -0.83100
C3572       C  0.88679311  0.89044636  0.00092908     0.92400
O3573       O  0.60902493  0.52254613  0.02338737    -0.83100
Mg3574     Mg  0.53791347  0.57322899  0.98592285     1.58200
O3575       O  0.97471306  0.88929027  0.00170088    -0.81400
O3576       O  0.97265338  0.58591001  0.00468783    -0.83100
O3577       O  0.87160916  0.65263262  0.31520364    -0.88700
C3578       C  0.81244657  0.61047821  0.36657167     0.87300
Mg3579     Mg  0.90920734  0.70037294  0.31467334     1.58100
O3580       O  0.78128394  0.63013554  0.32215333    -0.88400
O3581       O  0.83162669  0.61935377  0.29635952    -0.75700
C3582       C  0.84496262  0.78192751  0.35002112     0.92400
O3583       O  0.88785907  0.66738387  0.36556636    -0.75600
O3584       O  0.87141565  0.78324175  0.34967490    -0.83100
Mg3585     Mg  0.86974662  0.62534585  0.34296563     1.58000
C3586       C  0.72972092  0.67396786  0.33642798     0.92300
O3587       O  0.85445167  0.57936143  0.32473247    -0.81300
H3588       H  0.77068501  0.62756258  0.29091749    -0.06700
C3589       C  0.81445523  0.69413641  0.37188939     0.87300
O3590       O  0.87939031  0.71687521  0.29708767    -0.75800
O3591       O  0.82195733  0.61352084  0.34787599    -0.88600
O3592       O  0.72986659  0.64887541  0.33955837    -0.81400
C3593       C  0.72264919  0.56070684  0.34538690     0.92400
C3594       C  0.82880310  0.55400952  0.32220269     0.92300
Mg3595     Mg  0.80447322  0.71165332  0.32771510     1.58000
O3596       O  0.81942921  0.75627134  0.34809644    -0.81300
O3597       O  0.78698752  0.67035244  0.30406402    -0.75600
O3598       O  0.74716592  0.56033041  0.33943018    -0.81400
O3599       O  0.91995453  0.63742677  0.33752705    -0.83100
O3600       O  0.92763414  0.77560685  0.32997090    -0.81400
C3601       C  0.77903161  0.64181471  0.30521426     0.86700
O3602       O  0.85203434  0.72343753  0.32203263    -0.88600
O3603       O  0.80207651  0.68287340  0.35441097    -0.88700
O3604       O  0.84284976  0.71552384  0.37305346    -0.75700
Mg3605     Mg  0.79162558  0.59268323  0.32051897     1.58000
O3606       O  0.72300061  0.58560970  0.35059265    -0.83100
H3607       H  0.87405680  0.64857007  0.28333765    -0.06800
O3608       O  0.89390603  0.70681027  0.34643757    -0.88400
H3609       H  0.90593822  0.71103307  0.37744474    -0.06700
H3610       H  0.85022586  0.73374015  0.29121818    -0.06900
C3611       C  0.89672529  0.69597945  0.36357527     0.86700
C3612       C  0.85997658  0.64057514  0.29774940     0.87300
C3613       C  0.86028127  0.72545284  0.30307291     0.87300
H3614       H  0.80095442  0.68548662  0.38649306    -0.06800
O3615       O  0.79223837  0.61790023  0.37198323    -0.75900
Mg3616     Mg  0.88296427  0.74363268  0.34894341     1.58000
H3617       H  0.82201007  0.60195749  0.37865554    -0.06800
C3618       C  0.94444384  0.66217174  0.33194046     0.92300
O3619       O  0.94952241  0.75008410  0.31493458    -0.83100
C3620       C  0.95080274  0.77502179  0.32128323     0.92400
O3621       O  0.80265786  0.55311596  0.32087688    -0.83100
Mg3622     Mg  0.76378048  0.63510973  0.35319081     1.58200
O3623       O  0.94408982  0.68650219  0.32635462    -0.81400
O3624       O  0.75451355  0.69972437  0.33350755    -0.83100
O3625       O  0.65124639  0.86773568  0.68446201    -0.88700
C3626       C  0.60110449  0.80476549  0.63757634     0.87300
Mg3627     Mg  0.69927959  0.90292001  0.68123794     1.58100
O3628       O  0.62487447  0.77650339  0.68147403    -0.88400
O3629       O  0.62032497  0.83142611  0.70654124    -0.75700
C3630       C  0.77519234  0.83418154  0.64859935     0.92400
O3631       O  0.65889271  0.87654943  0.63313859    -0.75600
O3632       O  0.77543622  0.85961670  0.64637158    -0.83100
Mg3633     Mg  0.62044060  0.86375312  0.65851989     1.58000
C3634       C  0.66423519  0.71987405  0.66443228     0.92300
O3635       O  0.57861724  0.85366006  0.68055971    -0.81300
H3636       H  0.62470574  0.76661694  0.71262443    -0.06700
C3637       C  0.68406699  0.80127079  0.62813464     0.87300
O3638       O  0.71599417  0.87406285  0.69973178    -0.75800
O3639       O  0.60609419  0.81562432  0.65594998    -0.88600
O3640       O  0.63895084  0.72065775  0.66267976    -0.81400
C3641       C  0.55074944  0.71946222  0.66321121     0.92400
C3642       C  0.55258303  0.82911146  0.68393840     0.92300
Mg3643     Mg  0.70525630  0.79504165  0.67212583     1.58000
O3644       O  0.74992502  0.80849701  0.65160347    -0.81300
O3645       O  0.66597376  0.78016156  0.69740201    -0.75600
O3646       O  0.55236401  0.74396615  0.67072975    -0.81400
O3647       O  0.63527416  0.91431817  0.66122644    -0.83100
O3648       O  0.77255832  0.91615850  0.66278233    -0.81400
C3649       C  0.63768276  0.77389780  0.69772340     0.86700
O3650       O  0.71876804  0.84317964  0.67595437    -0.88600
O3651       O  0.67422954  0.79153962  0.64637440    -0.88700
O3652       O  0.70580475  0.82896735  0.62514684    -0.75700
Mg3653     Mg  0.58890375  0.78947355  0.68529581     1.58000
O3654       O  0.57436833  0.71874563  0.65554192    -0.83100
H3655       H  0.65258341  0.87474364  0.71622446    -0.06800
O3656       O  0.70037654  0.88280433  0.65016665    -0.88400
H3657       H  0.70061595  0.89034045  0.61859354    -0.06700
H3658       H  0.73173437  0.84431993  0.70653923    -0.06900
C3659       C  0.68748480  0.88390563  0.63345325     0.86700
C3660       C  0.64185522  0.85892949  0.70290489     0.87300
C3661       C  0.72290611  0.85356357  0.69444226     0.87300
H3662       H  0.67379900  0.78606145  0.61445564    -0.06800
O3663       O  0.60808977  0.78439051  0.63212038    -0.75900
Mg3664     Mg  0.73656455  0.87083688  0.64705056     1.58000
H3665       H  0.59168361  0.81364727  0.62569012    -0.06800
C3666       C  0.66152159  0.93852045  0.66426311     0.92300
O3667       O  0.74925372  0.94044461  0.67724961    -0.83100
C3668       C  0.77337794  0.94030976  0.67031653     0.92400
O3669       O  0.55056628  0.80272451  0.68607321    -0.83100
Mg3670     Mg  0.62533068  0.75593990  0.65034965     1.58200
O3671       O  0.68623606  0.93764108  0.66828372    -0.81400
O3672       O  0.69069002  0.74426056  0.66685413    -0.83100
C3673       C  0.85530062  0.86369379  0.77323930    -0.02200
C3674       C  0.84557778  0.86775265  0.75282822     0.07500
C3675       C  0.82376871  0.87826898  0.75140312    -0.02300
C3676       C  0.81239926  0.88519750  0.77024170    -0.02300
C3677       C  0.82493122  0.88468416  0.79053129     0.07600
C3678       C  0.84579220  0.87284676  0.79194520    -0.02500
Br3679     Br  0.86312640  0.87025217  0.81920995    -0.01000
Br3680     Br  0.88069263  0.84420829  0.77570946    -0.01100
Br3681     Br  0.77760947  0.89248377  0.76818452    -0.01100
Br3682     Br  0.81054131  0.88511489  0.72371674    -0.01100
C3683       C  0.82140924  0.80094544  0.57009011    -0.02200
C3684       C  0.83128746  0.77933351  0.57483915     0.07500
C3685       C  0.82502923  0.75541419  0.56001230    -0.02300
C3686       C  0.80767685  0.75232662  0.54134539    -0.02300
C3687       C  0.79333911  0.77055893  0.53867522     0.07600
C3688       C  0.80155189  0.79595820  0.55256387    -0.02500
Br3689     Br  0.78655363  0.82467864  0.54742821    -0.01000
Br3690     Br  0.83759576  0.83929942  0.58602209    -0.01100
Br3691     Br  0.80725689  0.72628728  0.51819899    -0.01100
Br3692     Br  0.83907143  0.72614968  0.56531273    -0.01100
C3693       C  0.51200833  0.79932505  0.54845923    -0.02200
C3694       C  0.98754133  0.77143533  0.53951694     0.07500
C3695       C  0.95826286  0.75695488  0.54991323    -0.02300
C3696       C  0.95445506  0.76772080  0.57001890    -0.02300
C3697       C  0.97831697  0.79596353  0.57866051     0.07600
C3698       C  0.00720732  0.81172277  0.56775920    -0.02500
Br3699     Br  0.53984687  0.85083421  0.57874816    -0.01000
Br3700     Br  0.55211839  0.82130746  0.53423824    -0.01100
Br3701     Br  0.91695174  0.74205425  0.58638126    -0.01100
Br3702     Br  0.92178804  0.72542458  0.53534530    -0.01100
C3703       C  0.81869297  0.96601838  0.78865405    -0.02200
C3704       C  0.83539786  0.95118185  0.79555865     0.07500
C3705       C  0.86546631  0.96115167  0.78709603    -0.02300
C3706       C  0.87655630  0.98187283  0.76969071    -0.02300
C3707       C  0.85970695  0.99630729  0.76264381     0.07600
C3708       C  0.83138690  0.98918522  0.77281847    -0.02500
Br3709     Br  0.81005011  0.01155114  0.76525534    -0.01000
Br3710     Br  0.77774571  0.95438551  0.80010598    -0.01100
Br3711     Br  0.91390530  0.48820926  0.75493261    -0.01100
Br3712     Br  0.89312212  0.94941158  0.80059111    -0.01100
C3713       C  0.79396029  0.51153415  0.57528548    -0.02200
C3714       C  0.80532685  0.54244935  0.58249598     0.07500
C3715       C  0.80022421  0.56281074  0.56951534    -0.02300
C3716       C  0.78586502  0.55307856  0.54916288    -0.02300
C3717       C  0.77420026  0.52221641  0.54216265     0.07600
C3718       C  0.77867777  0.50165796  0.55527253    -0.02500
Br3719     Br  0.76687681  0.96071343  0.54483954    -0.01000
Br3720     Br  0.80155370  0.48277208  0.59150585    -0.01100
Br3721     Br  0.78628862  0.58332771  0.52976914    -0.01100
Br3722     Br  0.81235327  0.60408562  0.57962544    -0.01100
C3723       C  0.94562714  0.65505957  0.55350393    -0.02200
C3724       C  0.96458648  0.66408010  0.57213652     0.07500
C3725       C  0.99228119  0.69359013  0.57248830    -0.02300
C3726       C  0.00038566  0.71344459  0.55464980    -0.02300
C3727       C  0.97958326  0.70595001  0.53731115     0.07600
C3728       C  0.95262924  0.67609248  0.53646078    -0.02500
Br3729     Br  0.92514133  0.66321825  0.51171007    -0.01000
Br3730     Br  0.91068235  0.61332619  0.55047430    -0.01100
Br3731     Br  0.54175697  0.74914994  0.55298668    -0.01100
Br3732     Br  0.51912759  0.70897685  0.59749848    -0.01100
C3733       C  0.51239474  0.93131349  0.76913267    -0.02200
C3734       C  0.50233840  0.90322728  0.75786387     0.07500
C3735       C  0.50495940  0.87914320  0.76776264    -0.02300
C3736       C  0.51940732  0.88372499  0.78795082    -0.02300
C3737       C  0.53219855  0.91282042  0.79851535     0.07600
C3738       C  0.52678255  0.93588312  0.78952008    -0.02500
Br3739     Br  0.53614172  0.97244599  0.80597320    -0.01000
Br3740     Br  0.00712176  0.96375722  0.75647769    -0.01100
Br3741     Br  0.52086614  0.84919149  0.80061476    -0.01100
Br3742     Br  0.48701220  0.83866126  0.75419572    -0.01100
C3743       C  0.55953800  0.66210452  0.77476276    -0.02200
C3744       C  0.55039007  0.64563888  0.79424541     0.07500
C3745       C  0.52188503  0.61737237  0.79498042    -0.02300
C3746       C  0.50373620  0.60485040  0.77617270    -0.02300
C3747       C  0.51425836  0.62023274  0.75594623     0.07600
C3748       C  0.54299105  0.64882485  0.75556135    -0.02500
Br3749     Br  0.56171764  0.67012250  0.72892004    -0.01000
Br3750     Br  0.59243808  0.70475021  0.77492976    -0.01100
Br3751     Br  0.96396507  0.56709042  0.77945443    -0.01100
Br3752     Br  0.50713155  0.59578806  0.82206209    -0.01100
C3753       C  0.60717166  0.96028189  0.75953792    -0.02200
C3754       C  0.61695379  0.99226085  0.75855623     0.07500
C3755       C  0.62175008  0.50901495  0.77815657    -0.02300
C3756       C  0.61238548  0.99317138  0.79785595    -0.02300
C3757       C  0.59996263  0.96075063  0.79848233     0.07600
C3758       C  0.60069927  0.94526605  0.77959950    -0.02500
Br3759     Br  0.59590432  0.90444412  0.78156745    -0.01000
Br3760     Br  0.60107962  0.93605855  0.73375793    -0.01100
Br3761     Br  0.61569908  0.51632437  0.82376571    -0.01100
Br3762     Br  0.64373839  0.55394903  0.77878127    -0.01100
C3763       C  0.65546030  0.66584511  0.76724686    -0.02200
C3764       C  0.64049830  0.63587574  0.75819305     0.07500
C3765       C  0.61195138  0.61266966  0.76703456    -0.02300
C3766       C  0.59985392  0.61882274  0.78569946    -0.02300
C3767       C  0.61340503  0.64929412  0.79379022     0.07600
C3768       C  0.64150715  0.67275877  0.78452707    -0.02500
Br3769     Br  0.66168494  0.71465164  0.79540185    -0.01000
Br3770     Br  0.69565633  0.69742637  0.75654035    -0.01100
Br3771     Br  0.56722390  0.58463701  0.80134036    -0.01100
Br3772     Br  0.58718590  0.57328246  0.75264305    -0.01100
C3773       C  0.69223324  0.98076032  0.54877858    -0.02200
C3774       C  0.70689269  0.50360794  0.53287136     0.07500
C3775       C  0.69957556  0.52766023  0.53187285    -0.02300
C3776       C  0.68198550  0.53120532  0.54837995    -0.02300
C3777       C  0.67426721  0.51283095  0.56706637     0.07600
C3778       C  0.67746938  0.48593722  0.56650790    -0.02500
Br3779     Br  0.66229518  0.95587758  0.58947862    -0.01000
Br3780     Br  0.69013244  0.94124463  0.54530886    -0.01100
Br3781     Br  0.66625920  0.55953618  0.54467691    -0.01100
Br3782     Br  0.71302074  0.55583283  0.50798886    -0.01100
C3783       C  0.72697064  0.72278677  0.56004144    -0.02200
C3784       C  0.73135674  0.71363811  0.53951042     0.07500
C3785       C  0.73125883  0.68541995  0.53701175    -0.02300
C3786       C  0.72949824  0.66778514  0.55517450    -0.02300
C3787       C  0.72459735  0.67669650  0.57595476     0.07600
C3788       C  0.72551611  0.70559077  0.57827012    -0.02500
Br3789     Br  0.72784927  0.72402184  0.60624552    -0.01000
Br3790     Br  0.71896946  0.75686237  0.56289235    -0.01100
Br3791     Br  0.73644187  0.63313032  0.55084659    -0.01100
Br3792     Br  0.73129098  0.66955694  0.50856600    -0.01100
C3793       C  0.54521282  0.85306469  0.86984397    -0.02200
C3794       C  0.54462496  0.88103191  0.87226118     0.07500
C3795       C  0.52959656  0.88488251  0.89023241    -0.02300
C3796       C  0.51864518  0.86291021  0.90702606    -0.03500
C3797       C  0.52134543  0.83557802  0.90553251     0.07600
C3798       C  0.53378911  0.83053575  0.88626885    -0.02500
Br3799     Br  0.53476188  0.79250566  0.88140473    -0.01000
Br3800     Br  0.56083290  0.84480399  0.84357455    -0.01100
Br3801     Br  0.00160643  0.87269752  0.93207857    -0.01100
Br3802     Br  0.52246071  0.91969249  0.89116893    -0.01100
C3803       C  0.58223165  0.73150753  0.89368222    -0.02200
C3804       C  0.56079715  0.71102687  0.90923791     0.07500
C3805       C  0.54467120  0.67867254  0.90449024    -0.02300
C3806       C  0.55052606  0.66735541  0.88510392    -0.02300
C3807       C  0.57321880  0.68771035  0.87040490     0.07600
C3808       C  0.58746394  0.71988657  0.87421054    -0.02500
Br3809     Br  0.61072530  0.74819038  0.85135596    -0.01000
Br3810     Br  0.60577739  0.77571152  0.89882590    -0.01100
Br3811     Br  0.52460244  0.62423600  0.87755404    -0.01100
Br3812     Br  0.01268657  0.64899330  0.92350240    -0.01100
C3813       C  0.80672812  0.86152693  0.90318619    -0.02200
C3814       C  0.77517194  0.84084958  0.90919198     0.07500
C3815       C  0.75144259  0.83244431  0.89333148    -0.02300
C3816       C  0.75938469  0.84312236  0.87205495    -0.02300
C3817       C  0.79000156  0.86591498  0.86703616     0.07600
C3818       C  0.81381650  0.87400694  0.88227935    -0.02500
Br3819     Br  0.85674527  0.90029085  0.87357764    -0.01000
Br3820     Br  0.84135567  0.87293885  0.92262171    -0.01100
Br3821     Br  0.72916354  0.82420282  0.84928377    -0.01100
Br3822     Br  0.70740708  0.80834377  0.90024836    -0.01100
C3823       C  0.64081842  0.66080527  0.90306258    -0.02200
C3824       C  0.67007634  0.68858494  0.90459956     0.07500
C3825       C  0.68039388  0.70948928  0.88711222    -0.02300
C3826       C  0.65972120  0.70563923  0.87042071    -0.02300
C3827       C  0.62979734  0.67905565  0.86966245     0.07600
C3828       C  0.62199665  0.65536985  0.88483473    -0.02500
Br3829     Br  0.58782998  0.61416400  0.87932236    -0.01000
Br3830     Br  0.62470280  0.63008799  0.92569477    -0.01100
Br3831     Br  0.67346361  0.73660432  0.84831397    -0.01100
Br3832     Br  0.72348517  0.74250053  0.88501581    -0.01100
C3833       C  0.62281739  0.92543987  0.88424579    -0.02200
C3834       C  0.60733465  0.94079262  0.87660509     0.07500
C3835       C  0.61047481  0.96676174  0.88830079    -0.02300
C3836       C  0.62885903  0.97703005  0.90723660    -0.02300
C3837       C  0.64295956  0.96039866  0.91533476     0.07600
C3838       C  0.63777979  0.93327994  0.90434522    -0.02500
Br3839     Br  0.64752930  0.90426885  0.91783859    -0.01000
Br3840     Br  0.62841674  0.89723827  0.86607520    -0.01100
Br3841     Br  0.63516915  0.01430771  0.92149030    -0.01100
Br3842     Br  0.59093319  0.98945911  0.87787651    -0.01100
C3843       C  0.80186257  0.95403965  0.90207592    -0.02200
C3844       C  0.77002921  0.93598876  0.90824343     0.07500
C3845       C  0.74849215  0.91434566  0.89344721    -0.02300
C3846       C  0.75871076  0.91119083  0.87302265    -0.02300
C3847       C  0.79082160  0.92511241  0.86858573     0.07600
C3848       C  0.81243694  0.94753996  0.88278415    -0.02500
Br3849     Br  0.85625064  0.97074298  0.87537345    -0.01000
Br3850     Br  0.83089740  0.98999482  0.91839877    -0.01100
Br3851     Br  0.72885568  0.89195466  0.85011315    -0.01100
Br3852     Br  0.70541417  0.88725165  0.90099230    -0.01100
C3853       C  0.95114495  0.83340289  0.11484103    -0.02200
C3854       C  0.92604289  0.81354672  0.12835142     0.07500
C3855       C  0.90931552  0.78151843  0.12340368    -0.02300
C3856       C  0.91530625  0.76993961  0.10423682    -0.02300
C3857       C  0.93977028  0.78986896  0.09029221     0.07600
C3858       C  0.95770085  0.82182338  0.09584665    -0.02500
Br3859     Br  0.49280442  0.85022795  0.07832539    -0.01000
Br3860     Br  0.97843276  0.87617305  0.12299458    -0.01100
Br3861     Br  0.88869568  0.72675335  0.09688780    -0.01100
Br3862     Br  0.88119836  0.75257819  0.14438489    -0.01100
C3863       C  0.87613976  0.84097957  0.11516516    -0.02200
C3864       C  0.86671277  0.81810335  0.13122978     0.07500
C3865       C  0.83550336  0.79326987  0.13114634    -0.02300
C3866       C  0.81569626  0.78963410  0.11380800    -0.02300
C3867       C  0.82753297  0.80915913  0.09566385     0.07600
C3868       C  0.85762890  0.83577653  0.09681171    -0.02500
Br3869     Br  0.87512210  0.86503026  0.07335123    -0.01000
Br3870     Br  0.91207595  0.88141309  0.11966715    -0.01100
Br3871     Br  0.77171224  0.75922787  0.11559998    -0.01100
Br3872     Br  0.81894469  0.76461260  0.15492444    -0.01100
C3873       C  0.80491691  0.01117006  0.42829015    -0.02200
C3874       C  0.81346166  0.98782579  0.42823162     0.07500
C3875       C  0.81272699  0.97327080  0.44796910    -0.02300
C3876       C  0.79923138  0.97844499  0.46645855    -0.02300
C3877       C  0.78709413  0.99881820  0.46558005     0.07600
C3878       C  0.79350126  0.01764752  0.44728916    -0.02500
Br3879     Br  0.78981804  0.55427357  0.44900419    -0.01000
Br3880     Br  0.80519003  0.53239616  0.40223106    -0.01100
Br3881     Br  0.79731889  0.95724567  0.49281055    -0.01100
Br3882     Br  0.83027970  0.94617816  0.44999570    -0.01100
C3883       C  0.79659830  0.81761641  0.43506977    -0.02200
C3884       C  0.78028064  0.83370874  0.43030054     0.07500
C3885       C  0.76042634  0.83523048  0.44623844    -0.02300
C3886       C  0.75616619  0.81980974  0.46591632    -0.02300
C3887       C  0.76812574  0.79968429  0.46872482     0.07600
C3888       C  0.78986035  0.80004038  0.45394434    -0.02500
Br3889     Br  0.81239152  0.77846826  0.46040318    -0.01000
Br3890     Br  0.83061196  0.82149441  0.41733406    -0.01100
Br3891     Br  0.73831048  0.82983115  0.49018155    -0.01100
Br3892     Br  0.73778127  0.85707824  0.44157201    -0.01100
C3893       C  0.88121494  0.82495909  0.22543582    -0.02200
C3894       C  0.88523330  0.84427384  0.20774930     0.07500
C3895       C  0.87305654  0.86470497  0.20885609    -0.02300
C3896       C  0.85999438  0.86776999  0.22814724    -0.02300
C3897       C  0.86104162  0.85228865  0.24686062     0.07600
C3898       C  0.87102947  0.83019554  0.24533081    -0.02500
Br3899     Br  0.87308062  0.80828817  0.27033171    -0.01000
Br3900     Br  0.88580194  0.78890583  0.22186996    -0.01100
Br3901     Br  0.83969561  0.89258472  0.22863124    -0.01100
Br3902     Br  0.87366878  0.88864379  0.18414940    -0.01100
C3903       C  0.55301022  0.81455805  0.43320525    -0.02200
C3904       C  0.53136187  0.82157348  0.42328159     0.07500
C3905       C  0.50165799  0.81041031  0.43293102    -0.02300
C3906       C  0.49353057  0.79202754  0.45173884    -0.02300
C3907       C  0.51474537  0.78402368  0.46100723     0.07600
C3908       C  0.54500830  0.79683106  0.45222898    -0.02500
Br3909     Br  0.57689209  0.79314770  0.46755768    -0.01000
Br3910     Br  0.59357587  0.82751100  0.42055225    -0.01100
Br3911     Br  0.95335588  0.77861194  0.46508900    -0.01100
Br3912     Br  0.47225029  0.82131104  0.42116423    -0.01100
C3913       C  0.70731611  0.99169371  0.44622400    -0.02200
C3914       C  0.71850155  0.97506586  0.45808706     0.07500
C3915       C  0.71235620  0.94568973  0.45043781    -0.02300
C3916       C  0.69639066  0.93380549  0.43077883    -0.02300
C3917       C  0.68497229  0.95039987  0.41921023     0.07600
C3918       C  0.69066862  0.97948484  0.42703430    -0.02500
Br3919     Br  0.67333494  0.00198140  0.41263631    -0.01000
Br3920     Br  0.71271105  0.03063653  0.45664840    -0.01100
Br3921     Br  0.69071042  0.89515480  0.41943250    -0.01100
Br3922     Br  0.72227365  0.91993424  0.46792821    -0.01100
C3923       C  0.96565827  0.84303306  0.21338762    -0.02200
C3924       C  0.95280189  0.85975895  0.20353378     0.07500
C3925       C  0.96207884  0.88997163  0.21132560    -0.02300
C3926       C  0.98055403  0.90166242  0.23013142    -0.02300
C3927       C  0.99167891  0.88406688  0.24080769     0.07600
C3928       C  0.98491283  0.85509416  0.23177828    -0.02500
Br3929     Br  0.00362381  0.83230368  0.24371336    -0.01000
Br3930     Br  0.95771521  0.80364742  0.20164237    -0.01100
Br3931     Br  0.48962626  0.94142262  0.24158648    -0.01100
Br3932     Br  0.95270067  0.91698649  0.19483724    -0.01100
C3933       C  0.94519798  0.65167848  0.10550402    -0.02200
C3934       C  0.97432658  0.66197730  0.09506609     0.07500
C3935       C  0.99288050  0.64893822  0.10144017    -0.02300
C3936       C  0.98169497  0.62488683  0.11685576    -0.02300
C3937       C  0.95203003  0.61384780  0.12658357     0.07600
C3938       C  0.93499082  0.62891867  0.12175954    -0.02500
Br3939     Br  0.89951836  0.62132209  0.13916273    -0.01000
Br3940     Br  0.91754713  0.66680358  0.09703525    -0.01100
Br3941     Br  0.00790659  0.60791027  0.12512494    -0.01100
Br3942     Br  0.53456067  0.66488283  0.08997154    -0.01100
C3943       C  0.84179171  0.53340123  0.10692792    -0.02200
C3944       C  0.85305845  0.53039337  0.08655068     0.07500
C3945       C  0.88369154  0.53460207  0.08522102    -0.02300
C3946       C  0.90293806  0.54315609  0.10365391    -0.02300
C3947       C  0.89272031  0.54911984  0.12340406     0.07600
C3948       C  0.86139330  0.54258116  0.12516057    -0.02500
Br3949     Br  0.84444098  0.54539610  0.15268650    -0.01000
Br3950     Br  0.79879421  0.52344382  0.11058826    -0.01100
Br3951     Br  0.94214105  0.54352904  0.10229064    -0.01100
Br3952     Br  0.90072049  0.53001950  0.05822328    -0.01100
C3953       C  0.91091890  0.99303133  0.22498436    -0.02200
C3954       C  0.89734782  0.50253497  0.24161289     0.07500
C3955       C  0.88990015  0.52618405  0.23662509    -0.02300
C3956       C  0.89525190  0.53902575  0.21580437    -0.02300
C3957       C  0.90924722  0.52995258  0.19979464     0.07600
C3958       C  0.91465111  0.50527486  0.20389423    -0.02500
Br3959     Br  0.92567069  0.98685166  0.18042577    -0.01000
Br3960     Br  0.92686748  0.96510765  0.23013253    -0.01100
Br3961     Br  0.88066889  0.56731887  0.20828731    -0.01100
Br3962     Br  0.87343274  0.54328303  0.25766581    -0.01100
C3963       C  0.69906845  0.62732482  0.09074004    -0.02200
C3964       C  0.72838616  0.65451291  0.08765081     0.07500
C3965       C  0.74866508  0.66745952  0.10571356    -0.02300
C3966       C  0.73784450  0.65618722  0.12652081    -0.02300
C3967       C  0.70846603  0.62972836  0.12933819     0.07600
C3968       C  0.68862022  0.61630044  0.11160158    -0.02500
Br3969     Br  0.64565759  0.58505628  0.11632998    -0.01000
Br3970     Br  0.67380135  0.60265182  0.06682570    -0.01100
Br3971     Br  0.76222084  0.67844260  0.15140766    -0.01100
Br3972     Br  0.79239270  0.69848173  0.10277079    -0.01100
C3973       C  0.74483104  0.59157879  0.12694360    -0.02200
C3974       C  0.71342275  0.57397999  0.13349957     0.07500
C3975       C  0.69243758  0.54846093  0.12094524    -0.02300
C3976       C  0.70195164  0.54309290  0.10079058    -0.02300
C3977       C  0.73205392  0.56409874  0.09263878     0.07600
C3978       C  0.75372532  0.58810041  0.10607065    -0.02500
Br3979     Br  0.79501128  0.61747861  0.09581624    -0.01000
Br3980     Br  0.77613117  0.61780407  0.14743409    -0.01100
Br3981     Br  0.67415160  0.50549775  0.08536382    -0.01100
Br3982     Br  0.65094688  0.52021551  0.13152903    -0.01100
C3983       C  0.63743689  0.54223220  0.21327501    -0.02200
C3984       C  0.66927296  0.55726739  0.20750308     0.07500
C3985       C  0.68974990  0.55035267  0.21900712    -0.02300
C3986       C  0.67872226  0.53002581  0.23672111    -0.02300
C3987       C  0.64726444  0.51698648  0.24353255     0.07600
C3988       C  0.62690696  0.52393127  0.23192228    -0.02500
Br3989     Br  0.58506481  0.01052851  0.24223997    -0.01000
Br3990     Br  0.60707462  0.54243118  0.19403122    -0.01100
Br3991     Br  0.70690095  0.51926264  0.25082702    -0.01100
Br3992     Br  0.73282997  0.56737648  0.21006700    -0.01100
C3993       C  0.53801000  0.69425836  0.44690740    -0.02200
C3994       C  0.52105746  0.68807643  0.42755322     0.07500
C3995       C  0.49649406  0.69503379  0.42622277    -0.02300
C3996       C  0.99042512  0.70952295  0.44364229    -0.02300
C3997       C  0.51023835  0.71956408  0.46172863     0.07600
C3998       C  0.53343556  0.71078432  0.46358583    -0.02500
Br3999     Br  0.55915281  0.72079846  0.48911693    -0.01000
Br4000     Br  0.56656319  0.67865566  0.45113442    -0.01100
Br4001     Br  0.95301507  0.71259015  0.44346024    -0.01100
Br4002     Br  0.97141889  0.68633346  0.40051444    -0.01100
C4003       C  0.70155428  0.72045924  0.42971573    -0.02200
C4004       C  0.67946052  0.73042129  0.42572331     0.07500
C4005       C  0.67255735  0.74534416  0.44283636    -0.02300
C4006       C  0.68608033  0.74862319  0.46334006    -0.02300
C4007       C  0.70918444  0.74044966  0.46657737     0.07600
C4008       C  0.71593285  0.72531757  0.45002623    -0.02500
Br4009     Br  0.74294550  0.70851222  0.45602570    -0.01000
Br4010     Br  0.71279490  0.69936443  0.40822232    -0.01100
Br4011     Br  0.67039717  0.76097494  0.48770013    -0.01100
Br4012     Br  0.64629822  0.76362895  0.43873185    -0.01100
C4013       C  0.96653378  0.61299435  0.21429741    -0.02200
C4014       C  0.96719581  0.58974938  0.20159175     0.07500
C4015       C  0.98301048  0.57474176  0.20919243    -0.02300
C4016       C  0.49362538  0.57902970  0.23050093    -0.02300
C4017       C  0.99316794  0.60223139  0.24346066     0.07600
C4018       C  0.97970234  0.61947193  0.23509017    -0.02500
Br4019     Br  0.98031633  0.65321124  0.25115031    -0.01000
Br4020     Br  0.94980287  0.63772181  0.20264396    -0.01100
Br4021     Br  0.50697865  0.55146807  0.24200195    -0.01100
Br4022     Br  0.49466186  0.55228660  0.18942430    -0.01100
C4023       C  0.63480820  0.63510162  0.22031023    -0.02200
C4024       C  0.65221596  0.64396696  0.23975851     0.07500
C4025       C  0.68028747  0.64252082  0.24069579    -0.02300
C4026       C  0.68967750  0.63122751  0.22301497    -0.02300
C4027       C  0.67064994  0.61953140  0.20467276     0.07600
C4028       C  0.64421017  0.62334368  0.20284500    -0.02500
Br4029     Br  0.62124686  0.61367151  0.17605964    -0.01000
Br4030     Br  0.59828181  0.63957680  0.21681000    -0.01100
Br4031     Br  0.73045450  0.63484086  0.22303529    -0.01100
Br4032     Br  0.70599982  0.65398027  0.26629127    -0.01100
loop_ 
_geom_bond_atom_site_label_1 
_geom_bond_atom_site_label_2 
_geom_bond_distance 
_geom_bond_site_symmetry_2 
_ccdc_geom_bond_type 
O1           Mg3   2.136       .  S
O1           Mg9   2.156       .  S
O1           C36   1.232       .  S
C2           O15   1.233       .  S
C2           O39   1.266       .  A
C2           H41   1.081       .  S
Mg3          O32   2.185       .  S
Mg3          O47   2.264   1_455  S
Mg3          O43   2.246       .  S
Mg3          O14   2.291       .  S
O4          Mg46   2.180       .  S
O4          Mg29   2.148       .  S
O4           C25   1.236       .  S
O5           C36   1.267       .  A
O5          Mg29   2.294       .  S
C6            O8   1.269       .  A
C6           O20   1.276       .  A
C6          C980   1.509       .  S
O7           C35   1.269       .  A
O7           Mg9   2.295       .  S
O8          Mg40   2.256       .  S
Mg9          O15   2.150       .  S
Mg9          O11   2.317       .  S
Mg9        O2039   2.273   1_455  S
C10          O48   1.272       .  A
C10          O16   1.269       .  A
C10         C562   1.453       .  S
O11          C18   1.276       .  A
H12          C25   1.082       .  S
C13          O27   1.233       .  S
C13          O28   1.268       .  A
C13          H38   1.081       .  S
O14          C37   1.267       .  A
O15         Mg29   2.158       .  S
O16         Mg46   2.276       .  S
C17          O30   1.270       .  A
C17          O22   1.272       .  A
C17        C1000   1.501       .  S
C18          O45   1.272       .  A
C18        C3009   1.488   1_455  S
Mg19         O26   2.146       .  S
Mg19         O27   2.152       .  S
Mg19         O20   2.337       .  S
Mg19         O21   2.304       .  S
Mg19         O48   2.262       .  S
O21          C25   1.270       .  A
O22         Mg29   2.292       .  S
O23          C42   1.273       .  A
O23       Mg2025   2.273       .  S
O24          C44   1.271       .  A
O24         Mg40   2.269       .  S
O26         Mg40   2.150       .  S
O26          C37   1.234       .  S
O27         Mg46   2.155       .  S
O28         Mg40   2.304       .  S
Mg29         O45   2.247       .  S
O30         Mg46   2.266       .  S
H31          C36   1.081       .  S
O32         Mg40   2.143       .  S
O32          C35   1.235       .  S
H33          C35   1.081       .  S
H34          C37   1.081       .  S
O39         Mg46   2.286       .  S
C42        O2063   1.267       .  A
C42         C594   1.456       .  S
O43          C44   1.267       .  A
C44         C970   1.485       .  S
O47        C2058   1.267       .  A
C49        C1003   1.494       .  S
C49          C50   1.428       .  A
C49          C54   1.404       .  A
C50         C960   1.493       .  S
C50          C51   1.405       .  A
C51          H56   1.084       .  S
C51          C52   1.396       .  A
C52         C950   1.488       .  S
C52          C53   1.413       .  A
C53         C943   1.481       .  S
C53          C54   1.397       .  A
C54          H55   1.084       .  S
C57         C990   1.489       .  S
C57          C58   1.415       .  A
C57          C62   1.400       .  A
C58         C933   1.497       .  S
C58          C59   1.404       .  A
C59          H64   1.084       .  S
C59          C60   1.414       .  A
C60         C923   1.502       .  S
C60          C61   1.432       .  A
C61         C913   1.503       .  S
C61          C62   1.406       .  A
C62          H63   1.084       .  S
O65         Mg67   2.139       .  S
O65         Mg73   2.135       .  S
O65         C100   1.237       .  S
C66          O79   1.233       .  S
C66         O103   1.268       .  A
C66         H105   1.081       .  S
Mg67         O96   2.165       .  S
Mg67        O107   2.248       .  S
Mg67         O78   2.311       .  S
Mg67       O1119   2.326       .  S
O68        Mg110   2.166       .  S
O68         Mg93   2.165       .  S
O68          C89   1.236       .  S
O69         C100   1.274       .  A
O69         Mg93   2.317       .  S
C70          O72   1.277       .  A
C70          O84   1.275       .  A
C70        C2919   1.504   1_455  S
O71          C99   1.276       .  A
O71         Mg73   2.323       .  S
O72        Mg104   2.328       .  S
Mg73         O79   2.136       .  S
Mg73         O75   2.292       .  S
Mg73       O1095   2.253       .  S
C74         O112   1.270       .  A
C74        O2096   1.275       .  A
C74         C596   1.464       .  S
O75          C82   1.268       .  A
H76          C89   1.081       .  S
C77          O91   1.236       .  S
C77          O92   1.272       .  A
C77         H102   1.081   1_455  S
O78         C101   1.270       .  A
O79         Mg93   2.131       .  S
O80        C2090   1.275       .  A
O80        Mg110   2.293   1_655  S
C81          O94   1.277       .  A
C81          O86   1.274       .  A
C81         C880   1.502       .  S
C82         O109   1.272       .  A
C82         C893   1.484       .  S
Mg83         O90   2.161       .  S
Mg83         O91   2.170       .  S
Mg83         O84   2.315       .  S
Mg83         O85   2.303       .  S
Mg83       O2128   2.277   1_455  S
O85          C89   1.271       .  A
O86         Mg93   2.305       .  S
O87         C106   1.264       .  A
O87       Mg1081   2.254   1_545  S
O88         C108   1.277       .  A
O88        Mg104   2.324       .  S
O90        Mg104   2.142       .  S
O90         C101   1.234       .  S
O91        Mg110   2.175       .  S
O92        Mg104   2.315       .  S
Mg93        O109   2.296       .  S
O94        Mg110   2.315       .  S
H95         C100   1.081       .  S
O96        Mg104   2.195       .  S
O96          C99   1.239       .  S
H97          C99   1.081       .  S
H98         C101   1.082       .  S
O103       Mg110   2.299       .  S
C106        O111   1.276       .  A
C106        C569   1.468       .  S
O107        C108   1.269       .  A
C108       C1971   1.489       .  S
O111      Mg1075   2.328   1_545  S
O112      Mg2099   2.277       .  S
O113       Mg115   2.124       .  S
O113       Mg121   2.129       .  S
O113        C148   1.236       .  S
C114        O127   1.235       .  S
C114        O151   1.271       .  A
C114        H153   1.081       .  S
Mg115       O144   2.181       .  S
Mg115       O159   2.322       .  S
Mg115       O155   2.258       .  S
Mg115       O126   2.296       .  S
O116       Mg158   2.175       .  S
O116       Mg141   2.155       .  S
O116        C137   1.234       .  S
O117        C148   1.271       .  A
O117       Mg141   2.310       .  S
C118        O120   1.270       .  A
C118        O132   1.272       .  A
C118       C1938   1.517       .  S
O119        C147   1.271       .  A
O119       Mg121   2.303       .  S
O120       Mg152   2.277       .  S
Mg121       O127   2.178       .  S
Mg121       O135   2.312       .  S
Mg121       O123   2.297       .  S
C122        O160   1.272       .  A
C122       O1136   1.279       .  A
C122        C570   1.470       .  S
O123        C130   1.270       .  A
H124        C137   1.081       .  S
C125        O139   1.234       .  S
C125        O140   1.267       .  A
C125        H150   1.081       .  S
O126        C149   1.269       .  A
O127       Mg141   2.148       .  S
O128       C1130   1.279       .  A
O128       Mg158   2.325       .  S
C129        O142   1.274       .  A
C129        O134   1.272       .  A
C129        C850   1.496       .  S
C130        O157   1.269       .  A
C130        C860   1.488       .  S
Mg131       O138   2.151       .  S
Mg131       O139   2.163       .  S
Mg131       O132   2.304       .  S
Mg131       O133   2.299       .  S
Mg131      O1168   2.286       .  S
O133        C137   1.269       .  A
O134       Mg141   2.283       .  S
O135        C154   1.273       .  A
O136        C156   1.268       .  A
O136       Mg152   2.239       .  S
O138       Mg152   2.168       .  S
O138        C149   1.235       .  S
O139       Mg158   2.136       .  S
O140       Mg152   2.286       .  S
Mg141       O157   2.265       .  S
O142       Mg158   2.289       .  S
H143        C148   1.081       .  S
O144       Mg152   2.157       .  S
O144        C147   1.237       .  S
H145        C147   1.080       .  S
H146        C149   1.080       .  S
O151       Mg158   2.309       .  S
C154        O159   1.276       .  A
C154        C558   1.478       .  S
O155        C156   1.269       .  A
C156        C873   1.474       .  S
O160      Mg1139   2.284   1_545  S
C161        C900   1.513       .  S
C161        C162   1.423       .  A
C161        C166   1.417       .  A
C162        C870   1.484       .  S
C162        C163   1.394       .  A
C163        H168   1.084       .  S
C163        C164   1.391       .  A
C164        C840   1.489       .  S
C164        C165   1.422       .  A
C165        C830   1.506       .  S
C165        C166   1.417       .  A
C166        H167   1.083       .  S
O169       Mg171   2.155   1_554  S
O169      Mg1185   2.128       .  S
O169        C204   1.237       .  S
C170        O183   1.234       .  S
C170        O207   1.269       .  A
C170        H209   1.081       .  S
Mg171      O1208   2.142   1_545  S
Mg171       O182   2.323       .  S
Mg171      O1223   2.325   1_546  S
Mg171      O1219   2.297   1_545  S
O172       Mg197   2.142       .  S
O172      Mg1222   2.172   1_545  S
O172        C193   1.236       .  S
O173        C204   1.274       .  A
O173       Mg197   2.322       .  S
C174        O176   1.269       .  A
C174        O188   1.268       .  A
C174        C820   1.483       .  S
O175        C203   1.274       .  A
O175       Mg177   2.323       .  S
O176       Mg208   2.270       .  S
Mg177       O183   2.179       .  S
Mg177      O1177   2.128       .  S
Mg177       O191   2.306       .  S
Mg177      O1187   2.296       .  S
C178        O216   1.270   1_545  A
C178        O184   1.276   1_556  A
C178       C1518   1.474       .  S
O179        C186   1.271       .  A
O179      Mg1185   2.295       .  S
H180        C193   1.082       .  S
C181        O195   1.237       .  S
C181        O196   1.273       .  A
C181        H206   1.080   1_556  S
O182        C205   1.273       .  A
O183      Mg1205   2.158       .  S
O184      Mg1222   2.321   1_545  S
C185        O198   1.271       .  A
C185        O190   1.275       .  A
C185        C920   1.501       .  S
C186        O213   1.268       .  A
C186        C953   1.479       .  S
Mg187       O194   2.181       .  S
Mg187      O1203   2.127       .  S
Mg187       O189   2.303   1_565  S
Mg187       O216   2.299       .  S
Mg187      O1196   2.285       .  S
O188      Mg1195   2.285       .  S
O189        C193   1.271   1_556  A
O190       Mg197   2.311       .  S
O191        C210   1.271       .  A
O192        C212   1.274       .  A
O192       Mg208   2.312       .  S
O194      Mg1216   2.139       .  S
O194        C205   1.236   1_565  S
O195       Mg214   2.131   1_556  S
O195      Mg1195   2.126       .  S
O196       Mg208   2.313       .  S
Mg197      O1191   2.158       .  S
Mg197       O213   2.254       .  S
O198      Mg1222   2.270   1_545  S
H199        C204   1.081   1_556  S
O200       Mg208   2.162       .  S
O200      Mg1179   2.142       .  S
O200        C203   1.237   1_556  S
H201        C203   1.081   1_556  S
H202        C205   1.081       .  S
O207       Mg214   2.302       .  S
Mg208      O1202   2.139       .  S
C210        O215   1.276       .  A
C210        C522   1.477       .  S
O211        C212   1.272       .  A
O211      Mg1179   2.297       .  S
C212        C813   1.498       .  S
Mg214      O1180   2.172       .  S
Mg214      O1192   2.320       .  S
Mg214      O1206   2.269       .  S
O215      Mg1179   2.325   1_554  S
O217       Mg219   2.129   1_556  S
O217       Mg225   2.140       .  S
O217        C252   1.232       .  S
C218        O231   1.237       .  S
C218        O255   1.272       .  A
C218        H257   1.081       .  S
Mg219       O248   2.155       .  S
Mg219       O263   2.293       .  S
Mg219       O259   2.246       .  S
Mg219       O230   2.295       .  S
O220       Mg262   2.165       .  S
O220       Mg245   2.132       .  S
O220        C241   1.233       .  S
O221        C252   1.266       .  A
O221       Mg245   2.292       .  S
C222        O224   1.263       .  A
C222        O236   1.276       .  A
C222        C940   1.496       .  S
O223        C251   1.267   1_556  A
O223       Mg225   2.294       .  S
O224       Mg256   2.208       .  S
Mg225       O231   2.164       .  S
Mg225       O239   2.283       .  S
Mg225       O227   2.338       .  S
C226        O264   1.276       .  A
C226        O232   1.270   1_554  A
C226        C521   1.463   1_554  S
O227        C234   1.277       .  A
H228        C241   1.081       .  S
C229        O243   1.233       .  S
C229        O244   1.266       .  A
C229        H254   1.081   1_554  S
O230        C253   1.271       .  A
O231       Mg245   2.155       .  S
O232       Mg262   2.296       .  S
C233        O246   1.263       .  A
C233        O238   1.266       .  A
C233        C800   1.484       .  S
C234        O261   1.265       .  A
C234        C790   1.500       .  S
Mg235       O242   2.150       .  S
Mg235       O243   2.140       .  S
Mg235       O236   2.314       .  S
Mg235       O237   2.302       .  S
Mg235       O264   2.284       .  S
O237        C241   1.268   1_554  A
O238       Mg245   2.246       .  S
O239        C258   1.277       .  A
O240        C260   1.269       .  A
O240       Mg256   2.263       .  S
O242       Mg256   2.168       .  S
O242        C253   1.237       .  S
O243       Mg262   2.122   1_554  S
O244       Mg256   2.284       .  S
Mg245       O261   2.218       .  S
O246       Mg262   2.233       .  S
H247        C252   1.081   1_554  S
O248       Mg256   2.117       .  S
O248        C251   1.233       .  S
H249        C251   1.082       .  S
H250        C253   1.081       .  S
O255       Mg262   2.304       .  S
C258        O263   1.271   1_556  A
C258        C548   1.461   1_556  S
O259        C260   1.267       .  A
C260        C843   1.483       .  S
O265       Mg267   2.178   1_556  S
O265      Mg2289   2.138       .  S
O265        C300   1.233       .  S
C266        O279   1.234       .  S
C266        O303   1.267       .  A
C266        H305   1.081       .  S
Mg267      O2312   2.150   1_455  S
Mg267       O278   2.306       .  S
Mg267      O2327   2.284   1_455  S
Mg267      O2323   2.255   1_455  S
O268       Mg293   2.158       .  S
O268      Mg2326   2.183   1_455  S
O268        C289   1.236       .  S
O269        C300   1.271       .  A
O269       Mg293   2.316       .  S
C270        O272   1.277       .  A
C270        O284   1.277       .  A
C270        C833   1.504       .  S
O271        C299   1.275   1_556  A
O271       Mg273   2.326       .  S
O272       Mg304   2.302       .  S
Mg273       O279   2.157       .  S
Mg273      O2281   2.138       .  S
Mg273       O287   2.285       .  S
Mg273      O2291   2.347       .  S
C274        O312   1.273       .  A
C274        O280   1.267   1_554  A
C274        C546   1.464   1_554  S
O275        C282   1.280       .  A
O275      Mg2289   2.347       .  S
H276        C289   1.083       .  S
C277        O291   1.234       .  S
C277        O292   1.270       .  A
C277        H302   1.080   1_554  S
O278        C301   1.271       .  A
O279      Mg2309   2.160       .  S
O280      Mg2326   2.285       .  S
C281        O294   1.265   1_455  A
C281        O286   1.277       .  A
C281        C773   1.508       .  S
C282        O309   1.276       .  A
C282        C780   1.510       .  S
Mg283       O290   2.164   1_655  S
Mg283      O2307   2.144       .  S
Mg283       O285   2.307   1_655  S
Mg283       O312   2.286       .  S
Mg283      O2300   2.329       .  S
O284      Mg2299   2.329       .  S
O285        C289   1.272   1_554  A
O286       Mg293   2.327       .  S
O287        C306   1.272       .  A
O288        C308   1.279       .  A
O288       Mg304   2.348       .  S
O290      Mg2320   2.149   1_455  S
O290        C301   1.235       .  S
O291       Mg310   2.159   1_554  S
O291      Mg2299   2.144       .  S
O292       Mg304   2.309       .  S
Mg293      O2295   2.160   1_455  S
Mg293       O309   2.294       .  S
O294      Mg2326   2.240       .  S
H295        C300   1.081   1_554  S
O296       Mg304   2.178       .  S
O296      Mg2283   2.150       .  S
O296        C299   1.238       .  S
H297        C299   1.081       .  S
H298        C301   1.081       .  S
O303       Mg310   2.288       .  S
Mg304      O2306   2.149       .  S
C306        O311   1.267   1_556  A
C306       C2530   1.463   1_556  S
O307        C308   1.268       .  A
O307      Mg2283   2.255       .  S
C308        C910   1.503       .  S
Mg310      O2284   2.183       .  S
Mg310      O2296   2.285       .  S
Mg310      O2310   2.240       .  S
O311      Mg2283   2.284       .  S
O313       Mg315   2.150       .  S
O313       Mg321   2.186       .  S
O313        C348   1.235       .  S
C314        O327   1.234       .  S
C314        O351   1.270       .  A
C314        H353   1.081       .  S
Mg315       O344   2.162       .  S
Mg315       O359   2.281   1_545  S
Mg315       O355   2.261       .  S
Mg315       O326   2.290       .  S
O316       Mg358   2.146       .  S
O316       Mg341   2.146       .  S
O316        C337   1.233       .  S
O317        C348   1.268       .  A
O317       Mg341   2.288       .  S
C318        O320   1.271       .  A
C318        O332   1.271       .  A
C318        C763   1.496       .  S
O319        C347   1.263       .  A
O319       Mg321   2.278       .  S
O320       Mg352   2.266       .  S
Mg321       O327   2.141       .  S
Mg321       O323   2.307       .  S
Mg321      O1343   2.254   1_545  S
C322        O360   1.274       .  A
C322        O328   1.268       .  A
C322        C610   1.466       .  S
O323        C330   1.274       .  A
H324        C337   1.081       .  S
C325        O339   1.235       .  S
C325        O340   1.270       .  A
C325        H350   1.081       .  S
O326        C349   1.268       .  A
O327       Mg341   2.157       .  S
O328       Mg358   2.282       .  S
C329        O342   1.265       .  A
C329        O334   1.268       .  A
C329        C740   1.475       .  S
C330        O357   1.267       .  A
C330       C1738   1.490   1_545  S
Mg331       O338   2.153       .  S
Mg331       O339   2.167       .  S
Mg331       O332   2.265       .  S
Mg331       O333   2.298       .  S
Mg331       O360   2.288       .  S
O333        C337   1.267       .  A
O334       Mg341   2.283       .  S
O335        C354   1.273       .  A
O335      Mg1329   2.254       .  S
O336        C356   1.279       .  A
O336       Mg352   2.312       .  S
O338       Mg352   2.172       .  S
O338        C349   1.235       .  S
O339       Mg358   2.142       .  S
O340       Mg352   2.298       .  S
Mg341       O357   2.234       .  S
O342       Mg358   2.234       .  S
H343        C348   1.081   1_565  S
O344       Mg352   2.122       .  S
O344        C347   1.231       .  S
H345        C347   1.081       .  S
H346        C349   1.081       .  S
O351       Mg358   2.310       .  S
C354       O1367   1.271       .  A
C354        C642   1.451       .  S
O355        C356   1.270       .  A
C356        C753   1.496       .  S
O359       C1362   1.271       .  A
C361        C803   1.482       .  S
C361        C362   1.421       .  A
C361        C366   1.395       .  A
C362        C783   1.504       .  S
C362        C363   1.416       .  A
C363        H368   1.083       .  S
C363        C364   1.417       .  A
C364        C720   1.501       .  S
C364        C365   1.421       .  A
C365        C743   1.487       .  S
C365        C366   1.394       .  A
C366        H367   1.086       .  S
C369        C810   1.502       .  S
C369        C370   1.421       .  A
C369        C374   1.407       .  A
C370        C770   1.494       .  S
C370        C371   1.408       .  A
C371        H376   1.084       .  S
C371        C372   1.408       .  A
C372        C713   1.509       .  S
C372        C373   1.425       .  A
C373        C733   1.496       .  S
C373        C374   1.411       .  A
C374        H375   1.084       .  S
O377       Mg379   2.149       .  S
O377       Mg385   2.174       .  S
O377        C412   1.232       .  S
C378        O391   1.234       .  S
C378        O415   1.268       .  A
C378        H417   1.081       .  S
Mg379       O408   2.192       .  S
Mg379       O423   2.271       .  S
Mg379       O419   2.243       .  S
Mg379       O390   2.280       .  S
O380       Mg422   2.164       .  S
O380       Mg405   2.169       .  S
O380        C401   1.237       .  S
O381        C412   1.266       .  A
O381       Mg405   2.287       .  S
C382        O384   1.274       .  A
C382        O396   1.277       .  A
C382        C690   1.496       .  S
O383        C411   1.267       .  A
O383       Mg385   2.288       .  S
O384       Mg416   2.278       .  S
Mg385       O391   2.146       .  S
Mg385       O387   2.319       .  S
Mg385      O2415   2.283       .  S
C386        O424   1.270       .  A
C386        O392   1.268       .  A
C386        C644   1.455       .  S
O387        C394   1.277       .  A
H388        C401   1.081       .  S
C389        O403   1.233       .  S
C389        O404   1.269       .  A
C389        H414   1.080       .  S
O390        C413   1.266       .  A
O391       Mg405   2.172       .  S
O392      Mg1430   2.281       .  S
C393        O406   1.267       .  A
C393        O398   1.273       .  A
C393       C1691   1.477   1_545  S
C394        O421   1.271       .  A
C394       C2739   1.515       .  S
Mg395       O402   2.134       .  S
Mg395       O403   2.147       .  S
Mg395       O396   2.331       .  S
Mg395       O397   2.310       .  S
Mg395      O1432   2.254   1_545  S
O397        C401   1.272       .  A
O398       Mg405   2.303       .  S
O399        C418   1.276       .  A
O399      Mg2401   2.283   1_455  S
O400        C420   1.273       .  A
O400       Mg416   2.287       .  S
O402       Mg416   2.151       .  S
O402        C413   1.233       .  S
O403       Mg422   2.150       .  S
O404       Mg416   2.307       .  S
Mg405       O421   2.273       .  S
O406       Mg422   2.230       .  S
H407        C412   1.080       .  S
O408       Mg416   2.148       .  S
O408        C411   1.233       .  S
H409        C411   1.081       .  S
H410        C413   1.081       .  S
O415       Mg422   2.297       .  S
C418       O2439   1.268       .  A
C418        C617   1.460       .  S
O419        C420   1.268       .  A
C420        C700   1.491       .  S
Mg422      O1400   2.281   1_545  S
O423       C2434   1.268       .  A
O424      Mg1403   2.254       .  S
O425       Mg427   2.127       .  S
O425       Mg433   2.141       .  S
O425        C460   1.237       .  S
C426        O439   1.235       .  S
C426        O463   1.273       .  A
C426        H465   1.081       .  S
Mg427       O456   2.188       .  S
Mg427       O471   2.314       .  S
Mg427       O467   2.253       .  S
Mg427       O438   2.294       .  S
O428       Mg470   2.150       .  S
O428       Mg453   2.169       .  S
O428        C449   1.237       .  S
O429        C460   1.273       .  A
O429       Mg453   2.316       .  S
C430        O432   1.272       .  A
C430        O444   1.275       .  A
C430       C2726   1.487       .  S
O431        C459   1.270       .  A
O431       Mg433   2.300       .  S
O432       Mg464   2.288       .  S
Mg433       O439   2.168       .  S
Mg433       O447   2.278       .  S
Mg433       O435   2.265       .  S
C434        O472   1.272       .  A
C434       O2456   1.277       .  A
C434        C618   1.472       .  S
O435        C442   1.264       .  A
H436        C449   1.081       .  S
C437        O451   1.238       .  S
C437        O452   1.275       .  A
C437        H462   1.081       .  S
O438        C461   1.267       .  A
O439       Mg453   2.135       .  S
O440       C2450   1.277       .  A
O440       Mg470   2.322       .  S
C441        O454   1.275       .  A
C441        O446   1.271       .  A
C441        C673   1.493       .  S
C442        O469   1.268       .  A
C442        C660   1.480       .  S
Mg443       O450   2.160       .  S
Mg443       O451   2.147       .  S
Mg443       O444   2.315       .  S
Mg443       O445   2.318       .  S
Mg443      O2488   2.294       .  S
O445        C449   1.274       .  A
O446       Mg453   2.293       .  S
O447        C466   1.266       .  A
O448        C468   1.278       .  A
O448       Mg464   2.316       .  S
O450       Mg464   2.145       .  S
O450        C461   1.232       .  S
O451       Mg470   2.169       .  S
O452       Mg464   2.324       .  S
Mg453       O469   2.288       .  S
O454       Mg470   2.320       .  S
H455        C460   1.081       .  S
O456       Mg464   2.159       .  S
O456        C459   1.236       .  S
H457        C459   1.081       .  S
H458        C461   1.081       .  S
O463       Mg470   2.323       .  S
C466        O471   1.275       .  A
C466        C606   1.469       .  S
O467        C468   1.271       .  A
C468        C650   1.484       .  S
O472      Mg2459   2.293   1_455  S
C473        C793   1.486       .  S
C473        C474   1.409       .  A
C473        C478   1.399       .  A
C474        C823   1.480       .  S
C474        C475   1.390       .  A
C475        H480   1.084       .  S
C475        C476   1.400       .  A
C476        C680   1.493       .  S
C476        C477   1.432       .  A
C477        C653   1.499       .  S
C477        C478   1.411       .  A
C478        H479   1.084       .  S
C481        C883   1.502       .  S
C481        C482   1.425       .  A
C481        C486   1.412       .  A
C482        C973   1.491       .  S
C482        C483   1.395   1_455  A
C483        H488   1.086       .  S
C483       C2500   1.394       .  A
C484        C703   1.492       .  S
C484        C485   1.425       .  A
C484       C2499   1.394       .  A
C485        C670   1.504       .  S
C485       C2502   1.412       .  A
C486        H487   1.084       .  S
C486       C2501   1.412   1_455  A
C489        C863   1.477       .  S
C489        C490   1.416       .  A
C489        C494   1.396       .  A
C490        C983   1.491       .  S
C490        C491   1.404       .  A
C491        H496   1.084       .  S
C491        C492   1.407       .  A
C492        C760   1.486       .  S
C492        C493   1.420       .  A
C493        C663   1.488       .  S
C493        C494   1.396       .  A
C494        H495   1.085       .  S
C497        C890   1.497       .  S
C497        C498   1.423       .  A
C497        C502   1.408       .  A
C498        C853   1.499       .  S
C498        C499   1.409       .  A
C499        H504   1.084       .  S
C499       C1508   1.411       .  A
C500        C693   1.497       .  S
C500        C501   1.421       .  A
C500       C1507   1.411       .  A
C501        C750   1.494       .  S
C501       C1510   1.403   1_545  A
C502        H503   1.084       .  S
C502       C1509   1.403       .  A
O505       Mg513   2.175   1_554  S
O505      Mg2523   2.154   1_455  S
O505        C540   1.232       .  S
C506        O519   1.233       .  S
C506        O543   1.267       .  A
C506        H545   1.080       .  S
Mg507       O536   2.194   1_554  S
Mg507      O2521   2.154       .  S
Mg507       O551   2.307       .  S
Mg507       O547   2.283       .  S
Mg507       O518   2.294       .  S
O508       Mg550   2.196   1_554  S
O508       Mg533   2.175       .  S
O508        C529   1.233       .  S
O509       C1548   1.267       .  A
O509       Mg533   2.292   1_565  S
C510        O512   1.274       .  A
C510       O1532   1.273       .  A
C510       C1186   1.474       .  S
O511       C2555   1.268   1_455  A
O511       Mg513   2.300       .  S
O512       Mg544   2.291       .  S
Mg513      O1527   2.149       .  S
Mg513       O527   2.263       .  S
Mg513       O515   2.298   1_556  S
C514        O520   1.275   1_654  A
C514       O2568   1.270       .  A
C514       C2322   1.463   1_654  S
O515        C522   1.273       .  A
H516        C529   1.080       .  S
C517        O531   1.232       .  S
C517       O1540   1.266       .  A
C517        H542   1.080       .  S
O518        C541   1.267       .  A
O519       Mg533   2.178   1_556  S
O519      Mg1521   2.149   1_545  S
O520       Mg550   2.303       .  S
C521        O534   1.274       .  A
C521        O526   1.271   1_556  A
C522       O1557   1.276       .  A
Mg523       O531   2.179   1_554  S
Mg523      O1538   2.149   1_545  S
Mg523       O524   2.300   1_554  S
Mg523       O525   2.296       .  S
Mg523       O552   2.259       .  S
O524       C1518   1.273       .  A
O525       C2545   1.268       .  A
O526       Mg533   2.272       .  S
O527        C546   1.270   1_455  A
O528        C548   1.270   1_556  A
O528       Mg544   2.266       .  S
C529       O2541   1.268   1_455  A
O530       Mg544   2.175   1_554  S
O530      Mg1531   2.150       .  S
O530        C541   1.233       .  S
O531      Mg2566   2.156       .  S
O532       C1525   1.266       .  A
O532       Mg544   2.292       .  S
Mg533       O549   2.303       .  S
O534       Mg550   2.287       .  S
H535        C540   1.080       .  S
O536       Mg544   2.173       .  S
O536        C539   1.234       .  S
H537        C539   1.080       .  S
H538        C541   1.082       .  S
C539       O2527   1.268       .  A
C540       O1517   1.267       .  A
O543       Mg550   2.291       .  S
C546       O2567   1.276   1_556  A
O547        C548   1.274       .  A
O549       C1530   1.276   1_545  A
Mg550      O2547   2.156   1_455  S
O551       C2562   1.276   1_554  A
O552       C2530   1.270       .  A
O553       Mg555   2.166       .  S
O553       Mg561   2.173       .  S
O553        C588   1.234       .  S
C554        O567   1.233       .  S
C554        O591   1.268       .  A
C554        H593   1.082       .  S
Mg555       O584   2.189       .  S
Mg555       O599   2.272       .  S
Mg555       O595   2.274       .  S
Mg555       O566   2.293       .  S
O556       Mg598   2.173       .  S
O556       Mg581   2.163       .  S
O556        C577   1.236       .  S
O557        C588   1.269       .  A
O557       Mg581   2.303       .  S
C558        O560   1.275       .  A
C558        O572   1.277       .  A
O559        C587   1.269       .  A
O559       Mg561   2.293       .  S
O560       Mg592   2.305       .  S
Mg561       O567   2.150       .  S
Mg561       O575   2.264       .  S
Mg561       O563   2.310       .  S
C562        O600   1.269       .  A
C562        O568   1.267       .  A
O563        C570   1.276       .  A
H564        C577   1.080       .  S
C565        O579   1.235       .  S
C565        O580   1.272       .  A
C565        H590   1.080       .  S
O566        C589   1.267       .  A
O567       Mg581   2.159       .  S
O568       Mg598   2.268       .  S
C569        O582   1.270       .  A
C569        O574   1.273       .  A
C570        O597   1.272       .  A
Mg571       O578   2.146       .  S
Mg571       O579   2.161       .  S
Mg571       O572   2.328       .  S
Mg571       O573   2.310       .  S
Mg571       O600   2.259       .  S
O573        C577   1.272       .  A
O574       Mg581   2.296       .  S
O575        C594   1.271       .  A
O576        C596   1.276       .  A
O576       Mg592   2.300       .  S
O578       Mg592   2.148       .  S
O578        C589   1.233       .  S
O579       Mg598   2.180       .  S
O580       Mg592   2.316       .  S
Mg581       O597   2.287       .  S
O582       Mg598   2.282       .  S
H583        C588   1.080       .  S
O584       Mg592   2.155       .  S
O584        C587   1.235       .  S
H585        C587   1.081       .  S
H586        C589   1.081       .  S
O591       Mg598   2.300       .  S
C594        O599   1.268       .  A
O595        C596   1.270       .  A
O601       Mg603   2.144       .  S
O601       Mg609   2.160       .  S
O601        C636   1.233       .  S
C602        O615   1.233       .  S
C602        O639   1.266       .  A
C602        H641   1.080       .  S
Mg603       O632   2.182       .  S
Mg603       O647   2.273       .  S
Mg603       O643   2.247       .  S
Mg603       O614   2.294       .  S
O604       Mg646   2.188       .  S
O604       Mg629   2.180       .  S
O604        C625   1.234       .  S
O605        C636   1.267       .  A
O605       Mg629   2.296       .  S
C606        O608   1.267       .  A
C606        O620   1.279       .  A
O607        C635   1.270       .  A
O607       Mg609   2.298       .  S
O608       Mg640   2.250       .  S
Mg609       O615   2.136       .  S
Mg609       O623   2.246       .  S
Mg609       O611   2.312       .  S
C610        O648   1.274       .  A
C610        O616   1.273       .  A
O611        C618   1.275       .  A
H612        C625   1.080       .  S
C613        O627   1.234       .  S
C613        O628   1.270       .  A
C613        H638   1.080       .  S
O614        C637   1.267       .  A
O615       Mg629   2.156       .  S
O616       Mg646   2.303       .  S
C617        O630   1.274       .  A
C617        O622   1.267       .  A
C618        O645   1.272       .  A
Mg619       O626   2.153       .  S
Mg619       O627   2.166       .  S
Mg619       O620   2.335       .  S
Mg619       O621   2.309       .  S
Mg619       O648   2.278       .  S
O621        C625   1.271       .  A
O622       Mg629   2.262       .  S
O623        C642   1.269       .  A
O624        C644   1.268       .  A
O624       Mg640   2.279       .  S
O626       Mg640   2.168       .  S
O626        C637   1.233       .  S
O627       Mg646   2.182       .  S
O628       Mg640   2.309       .  S
Mg629       O645   2.291       .  S
O630       Mg646   2.284       .  S
H631        C636   1.080       .  S
O632       Mg640   2.154       .  S
O632        C635   1.236       .  S
H633        C635   1.080       .  S
H634        C637   1.082       .  S
O639       Mg646   2.287       .  S
C642        O647   1.268       .  A
O643        C644   1.268       .  A
C649        C650   1.409       .  A
C649        C654   1.408       .  A
C649       Br656   1.935       .  S
C650        C651   1.415       .  A
C651        C652   1.409       .  A
C651       Br658   1.934       .  S
C652        C653   1.413       .  A
C652       Br657   1.928       .  S
C653        C654   1.421       .  A
C654       Br655   1.935       .  S
C659        C660   1.416       .  A
C659        C664   1.404       .  A
C659       Br666   1.930       .  S
C660        C661   1.408       .  A
C661        C662   1.406       .  A
C661       Br668   1.928       .  S
C662        C663   1.411       .  A
C662       Br667   1.923       .  S
C663        C664   1.409       .  A
C664       Br665   1.936       .  S
C669       C2686   1.422   1_455  A
C669       C2690   1.418       .  A
C669       Br676   1.933       .  S
C670        C671   1.409       .  A
C670       C2685   1.422       .  A
C671        C672   1.405       .  A
C671       Br678   1.926       .  S
C672        C673   1.414       .  A
C672       Br677   1.933       .  S
C673        C674   1.412       .  A
C674       C2685   1.418       .  A
C674      Br2691   1.929       .  S
Br675      C2690   1.929       .  S
C679        C680   1.421       .  A
C679        C684   1.406       .  A
C679       Br686   1.938       .  S
C680        C681   1.411       .  A
C681        C682   1.406       .  A
C681       Br688   1.928       .  S
C682        C683   1.414       .  A
C682      Br1695   1.933       .  S
C683       C1401   1.478       .  S
C683        C684   1.408       .  A
C684       Br685   1.934       .  S
Br687      C1690   1.933       .  S
C689        C690   1.419       .  A
C689        C694   1.411       .  A
C689       Br696   1.937   1_545  S
C690        C691   1.415       .  A
C691        C692   1.413       .  A
C691       Br698   1.932       .  S
C692        C693   1.411       .  A
C692       Br697   1.924       .  S
C693        C694   1.411       .  A
C694      Br1703   1.930   1_545  S
Br695      C1702   1.930       .  S
C699        C700   1.415       .  A
C699        C704   1.408       .  A
C699       Br706   1.937       .  S
C700        C701   1.423       .  A
C701        C702   1.406       .  A
C701      Br2724   1.937       .  S
C702        C703   1.407       .  A
C702      Br2723   1.930       .  S
C703        C704   1.418       .  A
C704       Br705   1.939       .  S
Br707      C2718   1.930       .  S
Br708      C2717   1.937   1_455  S
C709        C710   1.411       .  A
C709        C714   1.416       .  A
C709      Br2732   1.929       .  S
C710       C2446   1.487   1_455  S
C710        C711   1.411       .  A
C711        C712   1.406       .  A
C711       Br718   1.939   1_455  S
C712        C713   1.417       .  A
C712       Br717   1.926       .  S
C713        C714   1.418       .  A
C714       Br715   1.927       .  S
Br716      C2725   1.929       .  S
C719        C720   1.405       .  A
C719        C724   1.411       .  A
C719       Br726   1.926       .  S
C720        C721   1.409       .  A
C721        C722   1.415       .  A
C721       Br728   1.936       .  S
C722        C723   1.431       .  A
C722      Br2743   1.937   1_455  S
C723       C2410   1.515   1_455  S
C723        C724   1.425       .  A
C724       Br725   1.936       .  S
Br727      C2738   1.937       .  S
C729        C730   1.415       .  A
C729        C734   1.408       .  A
C729       Br736   1.932       .  S
C730       C1338   1.491       .  S
C730       C1739   1.421       .  A
C731       C1738   1.421   1_545  A
C731       C1740   1.407   1_545  A
C731       Br738   1.938       .  S
C732        C733   1.411       .  A
C732       C1739   1.407       .  A
C732      Br1745   1.932       .  S
C733        C734   1.410       .  A
C734       Br735   1.927       .  S
Br737      C1740   1.932   1_545  S
C739        C740   1.408       .  A
C739        C744   1.404       .  A
C739       Br746   1.935       .  S
C740        C741   1.414       .  A
C741        C742   1.403       .  A
C741       Br748   1.933       .  S
C742        C743   1.407       .  A
C742       Br747   1.925       .  S
C743        C744   1.416       .  A
C744       Br745   1.927       .  S
C749       C1758   1.408       .  A
C749       C1762   1.412       .  A
C749       Br756   1.926       .  S
C750        C751   1.412       .  A
C750       C1757   1.408   1_545  A
C751        C752   1.407       .  A
C751       Br758   1.922       .  S
C752        C753   1.410       .  A
C752       Br757   1.932       .  S
C753        C754   1.423   1_545  A
C754       C1757   1.412       .  A
C754      Br1763   1.934       .  S
Br755      C1762   1.934       .  S
C759        C760   1.404       .  A
C759        C764   1.403       .  A
C759       Br766   1.929       .  S
C760        C761   1.408       .  A
C761        C762   1.408       .  A
C761       Br768   1.932       .  S
C762        C763   1.421       .  A
C762       Br767   1.934       .  S
C763        C764   1.421       .  A
C764       Br765   1.938       .  S
C769        C770   1.413       .  A
C769        C774   1.412       .  A
C769       Br776   1.930       .  S
C770        C771   1.403       .  A
C771        C772   1.412       .  A
C771       Br778   1.930       .  S
C772        C773   1.432       .  A
C772      Br2793   1.938       .  S
C773        C774   1.420       .  A
C774       Br775   1.937       .  S
Br777      C2788   1.938       .  S
C779        C780   1.421       .  A
C779        C784   1.415       .  A
C779       Br786   1.933       .  S
C780        C781   1.425       .  A
C781        C782   1.416       .  A
C781      Br2804   1.936       .  S
C782        C783   1.410       .  A
C782       Br787   1.928       .  S
C783        C784   1.410       .  A
C784       Br785   1.927       .  S
Br788      C2797   1.936       .  S
C789        C790   1.424       .  A
C789        C794   1.408       .  A
C789       Br796   1.936       .  S
C790        C791   1.427       .  A
C791        C792   1.407       .  A
C791       Br798   1.937       .  S
C792        C793   1.400       .  A
C792       Br797   1.929       .  S
C793        C794   1.406       .  A
C794       Br795   1.932       .  S
C799        C800   1.420       .  A
C799        C804   1.405       .  A
C799       Br806   1.936       .  S
C800        C801   1.414       .  A
C801        C802   1.402       .  A
C801       Br808   1.939       .  S
C802        C803   1.410       .  A
C802       Br807   1.922       .  S
C803        C804   1.407       .  A
C804       Br805   1.928       .  S
C809        C810   1.407       .  A
C809        C814   1.405       .  A
C809       Br816   1.920       .  S
C810        C811   1.418       .  A
C811        C812   1.418       .  A
C811       Br818   1.928       .  S
C812        C813   1.415       .  A
C812       Br817   1.931       .  S
C813        C814   1.414       .  A
C814       Br815   1.929       .  S
C819        C820   1.420       .  A
C819        C824   1.405       .  A
C819       Br826   1.929       .  S
C820        C821   1.412       .  A
C821        C822   1.401       .  A
C821       Br828   1.925       .  S
C822        C823   1.405       .  A
C822       Br827   1.927       .  S
C823        C824   1.405       .  A
C824       Br825   1.933       .  S
C829        C830   1.413       .  A
C829        C834   1.416       .  A
C829       Br836   1.933       .  S
C830        C831   1.414       .  A
C831        C832   1.413       .  A
C831       Br838   1.927       .  S
C832        C833   1.415       .  A
C832       Br837   1.932       .  S
C833        C834   1.423       .  A
C834      Br2851   1.936       .  S
Br835      C2850   1.936       .  S
C839        C840   1.410       .  A
C839        C844   1.404       .  A
C839       Br846   1.928       .  S
C840        C841   1.416       .  A
C841        C842   1.407       .  A
C841       Br848   1.932       .  S
C842        C843   1.413       .  A
C842       Br847   1.935       .  S
C843        C844   1.417       .  A
C844       Br845   1.936       .  S
C849        C850   1.418       .  A
C849        C854   1.409       .  A
C849      Br1864   1.933       .  S
C850        C851   1.418       .  A
C851        C852   1.411       .  A
C851       Br858   1.935       .  S
C852        C853   1.411       .  A
C852       Br857   1.928       .  S
C853        C854   1.408       .  A
C854      Br1863   1.923       .  S
Br855      C1862   1.923       .  S
Br856      C1857   1.933       .  S
C859        C860   1.422       .  A
C859        C864   1.403       .  A
C859       Br866   1.933       .  S
C860        C861   1.419       .  A
C861        C862   1.405       .  A
C861       Br868   1.931       .  S
C862        C863   1.404       .  A
C862       Br867   1.928       .  S
C863        C864   1.403       .  A
C864       Br865   1.935       .  S
C869        C870   1.410       .  A
C869        C874   1.404       .  A
C869       Br876   1.927       .  S
C870        C871   1.416       .  A
C871        C872   1.402       .  A
C871       Br878   1.938       .  S
C872        C873   1.413       .  A
C872       Br877   1.938       .  S
C873        C874   1.413       .  A
C874       Br875   1.933       .  S
C879        C880   1.422       .  A
C879        C884   1.411       .  A
C879       Br886   1.937       .  S
C880        C881   1.416       .  A
C881        C882   1.416   1_455  A
C881       Br888   1.932   1_455  S
C882        C883   1.417   1_655  A
C882      Br2903   1.935       .  S
C883        C884   1.409       .  A
C884       Br885   1.929       .  S
Br887      C2898   1.935       .  S
C889        C890   1.413       .  A
C889        C894   1.404       .  A
C889       Br896   1.927       .  S
C890        C891   1.416       .  A
C891        C892   1.414       .  A
C891       Br898   1.924       .  S
C892        C893   1.410       .  A
C892       Br897   1.929       .  S
C893        C894   1.413       .  A
C894       Br895   1.937       .  S
C899        C900   1.415       .  A
C899        C904   1.415       .  A
C899       Br906   1.935       .  S
C900        C901   1.418       .  A
C901        C902   1.418       .  A
C901       Br908   1.925       .  S
C902        C903   1.412       .  A
C902      Br2923   1.929       .  S
C903       C2086   1.504       .  S
C903        C904   1.420       .  A
C904       Br905   1.934       .  S
Br907      C2918   1.929       .  S
C909        C910   1.419       .  A
C909        C914   1.413       .  A
C909       Br916   1.933       .  S
C910        C911   1.419       .  A
C911        C912   1.415       .  A
C911      Br2934   1.934       .  S
C912        C913   1.417       .  A
C912       Br917   1.936       .  S
C913        C914   1.411       .  A
C914       Br915   1.926       .  S
Br918      C2927   1.934   1_455  S
C919        C920   1.418       .  A
C919        C924   1.412       .  A
C919       Br926   1.937       .  S
C920        C921   1.422       .  A
C921        C922   1.413       .  A
C921       Br928   1.936       .  S
C922        C923   1.410       .  A
C922       Br927   1.927       .  S
C923        C924   1.417       .  A
C924       Br925   1.936       .  S
C929       C1938   1.431       .  A
C929       C1942   1.414       .  A
C929       Br936   1.935       .  S
C930       C1126   1.517   1_545  S
C930        C931   1.432       .  A
C930       C1937   1.431   1_545  A
C931        C932   1.411       .  A
C931       Br938   1.939       .  S
C932        C933   1.404       .  A
C932       Br937   1.932       .  S
C933        C934   1.403       .  A
C934       C1937   1.414   1_545  A
C934      Br1943   1.933   1_545  S
Br935      C1942   1.933       .  S
C939        C940   1.418       .  A
C939        C944   1.403       .  A
C939       Br946   1.935       .  S
C940        C941   1.427       .  A
C941        C942   1.405       .  A
C941       Br948   1.939       .  S
C942        C943   1.402       .  A
C942       Br947   1.933       .  S
C943        C944   1.404       .  A
C944       Br945   1.928       .  S
C949        C950   1.409       .  A
C949        C954   1.405       .  A
C949       Br956   1.924       .  S
C950        C951   1.407       .  A
C951        C952   1.406       .  A
C951       Br958   1.933       .  S
C952        C953   1.418       .  A
C952       Br957   1.933       .  S
C953        C954   1.411       .  A
C954       Br955   1.931       .  S
C959        C960   1.410       .  A
C959        C964   1.406       .  A
C959       Br966   1.925       .  S
C960        C961   1.416       .  A
C961        C962   1.410       .  A
C961       Br968   1.937       .  S
C962        C963   1.416       .  A
C962       Br967   1.935       .  S
C963       C1116   1.489   1_545  S
C963        C964   1.415       .  A
C964      Br1973   1.935       .  S
Br965      C1972   1.935       .  S
C969        C970   1.411       .  A
C969        C974   1.405       .  A
C969       Br976   1.936       .  S
C970        C971   1.419   1_455  A
C971       C2988   1.409       .  A
C971      Br2994   1.936       .  S
C972       C2987   1.409       .  A
C972       C2989   1.410       .  A
C972       Br977   1.927       .  S
C973        C974   1.419       .  A
C973       C2988   1.410   1_455  A
C974       Br975   1.938       .  S
Br978      C2987   1.936       .  S
C979        C980   1.427       .  A
C979        C984   1.410       .  A
C979       Br986   1.937       .  S
C980        C981   1.428       .  A
C981        C982   1.411       .  A
C981       Br988   1.936       .  S
C982        C983   1.403       .  A
C982       Br987   1.930       .  S
C983        C984   1.405       .  A
C984       Br985   1.932       .  S
C989        C990   1.410       .  A
C989        C994   1.411       .  A
C989       Br996   1.934       .  S
C990        C991   1.405       .  A
C991       C3008   1.402       .  A
C991      Br3014   1.925       .  S
C992       C3007   1.402       .  A
C992       C3009   1.413       .  A
C992       Br997   1.933   1_655  S
C993       C2034   1.488       .  S
C993        C994   1.422       .  A
C993       C3008   1.413       .  A
C994       Br995   1.935       .  S
Br998      C3007   1.925       .  S
C999       C1000   1.421       .  A
C999       C1004   1.412       .  A
C999      Br1006   1.937       .  S
C1000      C1001   1.424       .  A
C1001      C1002   1.409       .  A
C1001     Br1008   1.937       .  S
C1002      C1003   1.406       .  A
C1002     Br1007   1.930       .  S
C1003      C1004   1.414       .  A
C1004     Br1005   1.937       .  S
O1009     Mg1011   2.137       .  S
O1009     Mg1017   2.156       .  S
O1009      C1044   1.232       .  S
C1010      O1023   1.233       .  S
C1010      O1047   1.266       .  A
C1010      H1049   1.081       .  S
Mg1011     O1040   2.186       .  S
Mg1011     O1055   2.265   1_455  S
Mg1011     O1051   2.247       .  S
Mg1011     O1022   2.291       .  S
O1012     Mg1054   2.180       .  S
O1012     Mg1037   2.147       .  S
O1012      C1033   1.236       .  S
O1013      C1044   1.267       .  A
O1013     Mg1037   2.294       .  S
C1014      O1016   1.269       .  A
C1014      O1028   1.276       .  A
C1014      C1988   1.509       .  S
O1015      C1043   1.269       .  A
O1015     Mg1017   2.295       .  S
O1016     Mg1048   2.257       .  S
Mg1017     O1023   2.150       .  S
Mg1017     O3047   2.273   1_455  S
Mg1017     O1019   2.317       .  S
C1018      O1056   1.272       .  A
C1018      O1024   1.269       .  A
C1018      C1570   1.453       .  S
O1019      C1026   1.276       .  A
H1020      C1033   1.082       .  S
C1021      O1035   1.233       .  S
C1021      O1036   1.268       .  A
C1021      H1046   1.081       .  S
O1022      C1045   1.267       .  A
O1023     Mg1037   2.158       .  S
O1024     Mg1054   2.275       .  S
C1025      O1038   1.270       .  A
C1025      O1030   1.272       .  A
C1025      C2008   1.501       .  S
C1026      O1053   1.272       .  A
C1026      C4017   1.488   1_455  S
Mg1027     O1034   2.147       .  S
Mg1027     O1035   2.152       .  S
Mg1027     O1028   2.337       .  S
Mg1027     O1029   2.304       .  S
Mg1027     O1056   2.263       .  S
O1029      C1033   1.270       .  A
O1030     Mg1037   2.293       .  S
O1031      C1050   1.273       .  A
O1031     Mg3033   2.273       .  S
O1032      C1052   1.271       .  A
O1032     Mg1048   2.269       .  S
O1034     Mg1048   2.149       .  S
O1034      C1045   1.234       .  S
O1035     Mg1054   2.155       .  S
O1036     Mg1048   2.305       .  S
Mg1037     O1053   2.247       .  S
O1038     Mg1054   2.266       .  S
H1039      C1044   1.081       .  S
O1040     Mg1048   2.144       .  S
O1040      C1043   1.235       .  S
H1041      C1043   1.081       .  S
H1042      C1045   1.081       .  S
O1047     Mg1054   2.286       .  S
C1050      O3071   1.267       .  A
C1050      C1602   1.456       .  S
O1051      C1052   1.267       .  A
C1052      C1978   1.485       .  S
O1055      C3066   1.267       .  A
C1057      C2011   1.494       .  S
C1057      C1058   1.428       .  A
C1057      C1062   1.404       .  A
C1058      C1968   1.492       .  S
C1058      C1059   1.405       .  A
C1059      H1064   1.084       .  S
C1059      C1060   1.396       .  A
C1060      C1958   1.488       .  S
C1060      C1061   1.413       .  A
C1061      C1951   1.481       .  S
C1061      C1062   1.397       .  A
C1062      H1063   1.084       .  S
C1065      C1998   1.489       .  S
C1065      C1066   1.415       .  A
C1065      C1070   1.400       .  A
C1066      C1941   1.497       .  S
C1066      C1067   1.403       .  A
C1067      H1072   1.084       .  S
C1067      C1068   1.413       .  A
C1068      C1931   1.502       .  S
C1068      C1069   1.432       .  A
C1069      C1921   1.503       .  S
C1069      C1070   1.406       .  A
C1070      H1071   1.084       .  S
O1073     Mg1075   2.139       .  S
O1073     Mg1081   2.135       .  S
O1073      C1108   1.237       .  S
C1074      O1087   1.233       .  S
C1074      O1111   1.268       .  A
C1074      H1113   1.081       .  S
Mg1075     O1104   2.166       .  S
Mg1075     O1115   2.249   1_565  S
Mg1075     O1086   2.311       .  S
O1076     Mg1118   2.167       .  S
O1076     Mg1101   2.165       .  S
O1076      C1097   1.236       .  S
O1077      C1108   1.274       .  A
O1077     Mg1101   2.317       .  S
C1078      O1080   1.277       .  A
C1078      O1092   1.274       .  A
C1078      C3927   1.504   1_455  S
O1079      C1107   1.275       .  A
O1079     Mg1081   2.322       .  S
O1080     Mg1112   2.329       .  S
Mg1081     O1087   2.136       .  S
Mg1081     O1083   2.292       .  S
C1082      O1120   1.270       .  A
C1082      O3104   1.275       .  A
C1082      C1604   1.464       .  S
O1083      C1090   1.268       .  A
H1084      C1097   1.081       .  S
C1085      O1099   1.236       .  S
C1085      O1100   1.272       .  A
C1085      H1110   1.081   1_455  S
O1086      C1109   1.270       .  A
O1087     Mg1101   2.131       .  S
O1088      C3098   1.275       .  A
O1088     Mg1118   2.293   1_655  S
C1089      O1102   1.277       .  A
C1089      O1094   1.274       .  A
C1089      C1888   1.502       .  S
C1090      O1117   1.272       .  A
C1090      C1901   1.484       .  S
Mg1091     O1098   2.161       .  S
Mg1091     O1099   2.169       .  S
Mg1091     O1092   2.315       .  S
Mg1091     O1093   2.303       .  S
Mg1091     O3136   2.277   1_455  S
O1093      C1097   1.271       .  A
O1094     Mg1101   2.305       .  S
O1095      C1114   1.263       .  A
O1096      C1116   1.277       .  A
O1096     Mg1112   2.324       .  S
O1098     Mg1112   2.142       .  S
O1098      C1109   1.234       .  S
O1099     Mg1118   2.175       .  S
O1100     Mg1112   2.315       .  S
Mg1101     O1117   2.295       .  S
O1102     Mg1118   2.314       .  S
H1103      C1108   1.081       .  S
O1104     Mg1112   2.195       .  S
O1104      C1107   1.239       .  S
H1105      C1107   1.081       .  S
H1106      C1109   1.082       .  S
O1111     Mg1118   2.299       .  S
C1114      O1119   1.276       .  A
C1114      C1577   1.467       .  S
O1115      C1116   1.269   1_545  A
O1120     Mg3107   2.277       .  S
O1121     Mg1123   2.123       .  S
O1121     Mg1129   2.128       .  S
O1121      C1156   1.236       .  S
C1122      O1135   1.235       .  S
C1122      O1159   1.271       .  A
C1122      H1161   1.081       .  S
Mg1123     O1152   2.182       .  S
Mg1123     O1167   2.322       .  S
Mg1123     O1163   2.259       .  S
Mg1123     O1134   2.297       .  S
O1124     Mg1166   2.176       .  S
O1124     Mg1149   2.156       .  S
O1124      C1145   1.235       .  S
O1125      C1156   1.271       .  A
O1125     Mg1149   2.309       .  S
C1126      O1128   1.269       .  A
C1126      O1140   1.272       .  A
O1127      C1155   1.271       .  A
O1127     Mg1129   2.304       .  S
O1128     Mg1160   2.275       .  S
Mg1129     O1135   2.178       .  S
Mg1129     O1143   2.313       .  S
Mg1129     O1131   2.297       .  S
C1130      O1168   1.273       .  A
C1130      C1578   1.471       .  S
O1131      C1138   1.270       .  A
H1132      C1145   1.080       .  S
C1133      O1147   1.234       .  S
C1133      O1148   1.267       .  A
C1133      H1158   1.081   1_565  S
O1134      C1157   1.269       .  A
O1135     Mg1149   2.148       .  S
O1136     Mg1166   2.324   1_545  S
C1137      O1150   1.273       .  A
C1137      O1142   1.272       .  A
C1137      C1858   1.495       .  S
C1138      O1165   1.269       .  A
C1138      C1868   1.487       .  S
Mg1139     O1146   2.152       .  S
Mg1139     O1147   2.160       .  S
Mg1139     O1140   2.309       .  S
Mg1139     O1141   2.300       .  S
O1141      C1145   1.269       .  A
O1142     Mg1149   2.284       .  S
O1143      C1162   1.273       .  A
O1144      C1164   1.267       .  A
O1144     Mg1160   2.237       .  S
O1146     Mg1160   2.162       .  S
O1146      C1157   1.235       .  S
O1147     Mg1166   2.136       .  S
O1148     Mg1160   2.289       .  S
Mg1149     O1165   2.264       .  S
O1150     Mg1166   2.288       .  S
H1151      C1156   1.081       .  S
O1152     Mg1160   2.157       .  S
O1152      C1155   1.237       .  S
H1153      C1155   1.080       .  S
H1154      C1157   1.080       .  S
O1159     Mg1166   2.309       .  S
C1162      O1167   1.276       .  A
C1162      C1566   1.479       .  S
O1163      C1164   1.269       .  A
C1164      C1881   1.475       .  S
C1169      C1908   1.513       .  S
C1169      C1170   1.423       .  A
C1169      C1174   1.418       .  A
C1170      C1878   1.484       .  S
C1170      C1171   1.395       .  A
C1171      H1176   1.084       .  S
C1171      C1172   1.392       .  A
C1172      C1848   1.490       .  S
C1172      C1173   1.422       .  A
C1173      C1838   1.506       .  S
C1173      C1174   1.418       .  A
C1174      H1175   1.083       .  S
O1177     Mg1179   2.156   1_554  S
O1177      C1212   1.237       .  S
C1178      O1191   1.234   1_565  S
C1178      O1215   1.269       .  A
C1178      H1217   1.081       .  S
Mg1179     O1190   2.323       .  S
O1180     Mg1205   2.142       .  S
O1180      C1201   1.236       .  S
O1181      C1212   1.274       .  A
O1181     Mg1205   2.323       .  S
C1182      O1184   1.269       .  A
C1182      O1196   1.268       .  A
C1182      C1828   1.483       .  S
O1183      C1211   1.274       .  A
O1183     Mg1185   2.322   1_565  S
O1184     Mg1216   2.269       .  S
Mg1185     O1191   2.179       .  S
Mg1185     O1199   2.307       .  S
C1186      O1224   1.270       .  A
C1186      O1192   1.276   1_556  A
O1187      C1194   1.271       .  A
H1188      C1201   1.082       .  S
C1189      O1203   1.237       .  S
C1189      O1204   1.273       .  A
C1189      H1214   1.080   1_556  S
O1190      C1213   1.273       .  A
C1193      O1206   1.270       .  A
C1193      O1198   1.275       .  A
C1193      C1928   1.501       .  S
C1194      O1221   1.268       .  A
C1194      C1961   1.480       .  S
Mg1195     O1202   2.181       .  S
Mg1195     O1197   2.304       .  S
Mg1195     O1224   2.299       .  S
O1197      C1201   1.271   1_556  A
O1198     Mg1205   2.311       .  S
O1199      C1218   1.271   1_545  A
O1200      C1220   1.274       .  A
O1200     Mg1216   2.312       .  S
O1202      C1213   1.236       .  S
O1203     Mg1222   2.131   1_556  S
O1204     Mg1216   2.314       .  S
Mg1205     O1221   2.254       .  S
H1207      C1212   1.081   1_556  S
O1208     Mg1216   2.161       .  S
O1208      C1211   1.237   1_556  S
H1209      C1211   1.081   1_556  S
H1210      C1213   1.081       .  S
O1215     Mg1222   2.302       .  S
C1218      O1223   1.276       .  A
C1218      C1530   1.477       .  S
O1219      C1220   1.272       .  A
C1220      C1821   1.498       .  S
O1225     Mg1227   2.130   1_556  S
O1225     Mg1233   2.140       .  S
O1225      C1260   1.232       .  S
C1226      O1239   1.237       .  S
C1226      O1263   1.271       .  A
C1226      H1265   1.081       .  S
Mg1227     O1256   2.155       .  S
Mg1227     O1271   2.292       .  S
Mg1227     O1267   2.247       .  S
Mg1227     O1238   2.295       .  S
O1228     Mg1270   2.166       .  S
O1228     Mg1253   2.131       .  S
O1228      C1249   1.233       .  S
O1229      C1260   1.266       .  A
O1229     Mg1253   2.292       .  S
C1230      O1232   1.263       .  A
C1230      O1244   1.276       .  A
C1230      C1948   1.496       .  S
O1231      C1259   1.267   1_556  A
O1231     Mg1233   2.295       .  S
O1232     Mg1264   2.208       .  S
Mg1233     O1239   2.163       .  S
Mg1233     O1247   2.282       .  S
Mg1233     O1235   2.339       .  S
C1234      O1272   1.276       .  A
C1234      O1240   1.270   1_554  A
C1234      C1529   1.464   1_554  S
O1235      C1242   1.277       .  A
H1236      C1249   1.081       .  S
C1237      O1251   1.233       .  S
C1237      O1252   1.266       .  A
C1237      H1262   1.081   1_554  S
O1238      C1261   1.271       .  A
O1239     Mg1253   2.155       .  S
O1240     Mg1270   2.296       .  S
C1241      O1254   1.263       .  A
C1241      O1246   1.266       .  A
C1241      C1808   1.484       .  S
C1242      O1269   1.265       .  A
C1242      C1798   1.500       .  S
Mg1243     O1250   2.151       .  S
Mg1243     O1251   2.140       .  S
Mg1243     O1244   2.315       .  S
Mg1243     O1245   2.302       .  S
Mg1243     O1272   2.285       .  S
O1245      C1249   1.268   1_554  A
O1246     Mg1253   2.245       .  S
O1247      C1266   1.277       .  A
O1248      C1268   1.269       .  A
O1248     Mg1264   2.264       .  S
O1250     Mg1264   2.169       .  S
O1250      C1261   1.237       .  S
O1251     Mg1270   2.122   1_554  S
O1252     Mg1264   2.284       .  S
Mg1253     O1269   2.219       .  S
O1254     Mg1270   2.234       .  S
H1255      C1260   1.081   1_554  S
O1256     Mg1264   2.118       .  S
O1256      C1259   1.233       .  S
H1257      C1259   1.082       .  S
H1258      C1261   1.081       .  S
O1263     Mg1270   2.303       .  S
C1266      O1271   1.271   1_556  A
C1266      C1556   1.460   1_556  S
O1267      C1268   1.267       .  A
C1268      C1851   1.484       .  S
O1273     Mg1275   2.177   1_556  S
O1273     Mg3297   2.138       .  S
O1273      C1308   1.233       .  S
C1274      O1287   1.234       .  S
C1274      O1311   1.267       .  A
C1274      H1313   1.081       .  S
Mg1275     O3320   2.150   1_455  S
Mg1275     O3335   2.284   1_455  S
Mg1275     O3331   2.254   1_455  S
Mg1275     O1286   2.306       .  S
O1276     Mg3334   2.183   1_455  S
O1276     Mg1301   2.159       .  S
O1276      C1297   1.236       .  S
O1277      C1308   1.270       .  A
O1277     Mg1301   2.316       .  S
C1278      O1280   1.277       .  A
C1278      O1292   1.277       .  A
C1278      C1841   1.504       .  S
O1279      C1307   1.275   1_556  A
O1279     Mg1281   2.327       .  S
O1280     Mg1312   2.302       .  S
Mg1281     O3289   2.138       .  S
Mg1281     O1287   2.157       .  S
Mg1281     O1295   2.286       .  S
Mg1281     O3299   2.348       .  S
C1282      O1320   1.273       .  A
C1282      O1288   1.267   1_554  A
C1282      C1554   1.464   1_554  S
O1283      C1290   1.280       .  A
O1283     Mg3297   2.348       .  S
H1284      C1297   1.083       .  S
C1285      O1299   1.234       .  S
C1285      O1300   1.270       .  A
C1285      H1310   1.080   1_554  S
O1286      C1309   1.271       .  A
O1287     Mg3317   2.160       .  S
O1288     Mg3334   2.285       .  S
C1289      O1302   1.265   1_455  A
C1289      O1294   1.277       .  A
C1289      C1781   1.508       .  S
C1290      O1317   1.276       .  A
C1290      C1788   1.511       .  S
Mg1291     O1298   2.164   1_655  S
Mg1291     O3315   2.145       .  S
Mg1291     O3308   2.329       .  S
Mg1291     O1293   2.307   1_655  S
Mg1291     O1320   2.286       .  S
O1292     Mg3307   2.329       .  S
O1293      C1297   1.272   1_554  A
O1294     Mg1301   2.326       .  S
O1295      C1314   1.272       .  A
O1296      C1316   1.279       .  A
O1296     Mg1312   2.347       .  S
O1298     Mg3328   2.149   1_455  S
O1298      C1309   1.235       .  S
O1299     Mg3307   2.145       .  S
O1299     Mg1318   2.159   1_554  S
O1300     Mg1312   2.309       .  S
Mg1301     O3303   2.160   1_455  S
Mg1301     O1317   2.294       .  S
O1302     Mg3334   2.240       .  S
H1303      C1308   1.081   1_554  S
O1304     Mg3291   2.150       .  S
O1304     Mg1312   2.178       .  S
O1304      C1307   1.238       .  S
H1305      C1307   1.081       .  S
H1306      C1309   1.081       .  S
O1311     Mg1318   2.289       .  S
Mg1312     O3314   2.149       .  S
C1314      O1319   1.267   1_556  A
C1314      C3538   1.463   1_556  S
O1315      C1316   1.268       .  A
O1315     Mg3291   2.254       .  S
C1316      C1918   1.503       .  S
Mg1318     O3292   2.183       .  S
Mg1318     O3304   2.285       .  S
Mg1318     O3318   2.240       .  S
O1319     Mg3291   2.284       .  S
O1321     Mg1323   2.150       .  S
O1321     Mg1329   2.187       .  S
O1321      C1356   1.235       .  S
C1322      O1335   1.234       .  S
C1322      O1359   1.270       .  A
C1322      H1361   1.081       .  S
Mg1323     O1352   2.162       .  S
Mg1323     O1367   2.281       .  S
Mg1323     O1363   2.261       .  S
Mg1323     O1334   2.290       .  S
O1324     Mg1366   2.146       .  S
O1324     Mg1349   2.146       .  S
O1324      C1345   1.233       .  S
O1325      C1356   1.268       .  A
O1325     Mg1349   2.287       .  S
C1326      O1328   1.271       .  A
C1326      O1340   1.271       .  A
C1326      C1771   1.496       .  S
O1327      C1355   1.263       .  A
O1327     Mg1329   2.278       .  S
O1328     Mg1360   2.267       .  S
Mg1329     O1335   2.140       .  S
Mg1329     O1331   2.307       .  S
C1330      O1368   1.274       .  A
C1330      O1336   1.268       .  A
C1330      C1618   1.466       .  S
O1331      C1338   1.274       .  A
H1332      C1345   1.081       .  S
C1333      O1347   1.235       .  S
C1333      O1348   1.270       .  A
C1333      H1358   1.081       .  S
O1334      C1357   1.268       .  A
O1335     Mg1349   2.157       .  S
O1336     Mg1366   2.282       .  S
C1337      O1350   1.265       .  A
C1337      O1342   1.268       .  A
C1337      C1748   1.475       .  S
C1338      O1365   1.267       .  A
Mg1339     O1346   2.153       .  S
Mg1339     O1347   2.167       .  S
Mg1339     O1340   2.266       .  S
Mg1339     O1341   2.299       .  S
Mg1339     O1368   2.289       .  S
O1341      C1345   1.268       .  A
O1342     Mg1349   2.281       .  S
O1343      C1362   1.273       .  A
O1344      C1364   1.279       .  A
O1344     Mg1360   2.312       .  S
O1346     Mg1360   2.173       .  S
O1346      C1357   1.235       .  S
O1347     Mg1366   2.143       .  S
O1348     Mg1360   2.298       .  S
Mg1349     O1365   2.235       .  S
O1350     Mg1366   2.235       .  S
H1351      C1356   1.081       .  S
O1352     Mg1360   2.123       .  S
O1352      C1355   1.231       .  S
H1353      C1355   1.081       .  S
H1354      C1357   1.081       .  S
O1359     Mg1366   2.310       .  S
C1362      C1650   1.452       .  S
O1363      C1364   1.270       .  A
C1364      C1761   1.496       .  S
C1369      C1811   1.482       .  S
C1369      C1370   1.421       .  A
C1369      C1374   1.394       .  A
C1370      C1791   1.504       .  S
C1370      C1371   1.416       .  A
C1371      H1376   1.083       .  S
C1371      C1372   1.417       .  A
C1372      C1728   1.502       .  S
C1372      C1373   1.421       .  A
C1373      C1751   1.487       .  S
C1373      C1374   1.394       .  A
C1374      H1375   1.086       .  S
C1377      C1818   1.502       .  S
C1377      C1378   1.421       .  A
C1377      C1382   1.406       .  A
C1378      C1778   1.493       .  S
C1378      C1379   1.407       .  A
C1379      H1384   1.084       .  S
C1379      C1380   1.408       .  A
C1380      C1721   1.509       .  S
C1380      C1381   1.425       .  A
C1381      C1741   1.495       .  S
C1381      C1382   1.411       .  A
C1382      H1383   1.084       .  S
O1385     Mg1387   2.149       .  S
O1385     Mg1393   2.175       .  S
O1385      C1420   1.232       .  S
C1386      O1399   1.234       .  S
C1386      O1423   1.268       .  A
C1386      H1425   1.081       .  S
Mg1387     O1416   2.191       .  S
Mg1387     O1431   2.273       .  S
Mg1387     O1427   2.244       .  S
Mg1387     O1398   2.280       .  S
O1388     Mg1430   2.163       .  S
O1388     Mg1413   2.169       .  S
O1388      C1409   1.237       .  S
O1389      C1420   1.266       .  A
O1389     Mg1413   2.287       .  S
C1390      O1392   1.274       .  A
C1390      O1404   1.277       .  A
C1390      C1698   1.496       .  S
O1391      C1419   1.266       .  A
O1391     Mg1393   2.287       .  S
O1392     Mg1424   2.277       .  S
Mg1393     O1399   2.146       .  S
Mg1393     O3423   2.284       .  S
Mg1393     O1395   2.315       .  S
C1394      O1432   1.270       .  A
C1394      O1400   1.268       .  A
C1394      C1652   1.455       .  S
O1395      C1402   1.277       .  A
H1396      C1409   1.081       .  S
C1397      O1411   1.233       .  S
C1397      O1412   1.269       .  A
C1397      H1422   1.080       .  S
O1398      C1421   1.266       .  A
O1399     Mg1413   2.174       .  S
C1401      O1414   1.267       .  A
C1401      O1406   1.273       .  A
C1402      O1429   1.272       .  A
C1402      C3747   1.512       .  S
Mg1403     O1410   2.135       .  S
Mg1403     O1411   2.147       .  S
Mg1403     O1404   2.331       .  S
Mg1403     O1405   2.311       .  S
O1405      C1409   1.272       .  A
O1406     Mg1413   2.304       .  S
O1407      C1426   1.276       .  A
O1407     Mg3409   2.284   1_455  S
O1408      C1428   1.273       .  A
O1408     Mg1424   2.287       .  S
O1410     Mg1424   2.151       .  S
O1410      C1421   1.233       .  S
O1411     Mg1430   2.151       .  S
O1412     Mg1424   2.307       .  S
Mg1413     O1429   2.274       .  S
O1414     Mg1430   2.231       .  S
H1415      C1420   1.080       .  S
O1416     Mg1424   2.148       .  S
O1416      C1419   1.233       .  S
H1417      C1419   1.081       .  S
H1418      C1421   1.081       .  S
O1423     Mg1430   2.296       .  S
C1426      O3447   1.268       .  A
C1426      C1625   1.461       .  S
O1427      C1428   1.268       .  A
C1428      C1708   1.491       .  S
O1431      C3442   1.268       .  A
O1433     Mg1435   2.129       .  S
O1433     Mg1441   2.141       .  S
O1433      C1468   1.237       .  S
C1434      O1447   1.235       .  S
C1434      O1471   1.273       .  A
C1434      H1473   1.081       .  S
Mg1435     O1464   2.187       .  S
Mg1435     O1479   2.314       .  S
Mg1435     O1475   2.255       .  S
Mg1435     O1446   2.294       .  S
O1436     Mg1478   2.150       .  S
O1436     Mg1461   2.169       .  S
O1436      C1457   1.237       .  S
O1437      C1468   1.273       .  A
O1437     Mg1461   2.317       .  S
C1438      O1440   1.272       .  A
C1438      O1452   1.275       .  A
C1438      C3734   1.486       .  S
O1439      C1467   1.270       .  A
O1439     Mg1441   2.300       .  S
O1440     Mg1472   2.288       .  S
Mg1441     O1447   2.168       .  S
Mg1441     O1455   2.277       .  S
Mg1441     O1443   2.266       .  S
C1442      O1480   1.272       .  A
C1442      O3464   1.277       .  A
C1442      C1626   1.472       .  S
O1443      C1450   1.264       .  A
H1444      C1457   1.081       .  S
C1445      O1459   1.238       .  S
C1445      O1460   1.275       .  A
C1445      H1470   1.081       .  S
O1446      C1469   1.267       .  A
O1447     Mg1461   2.134       .  S
O1448      C3458   1.277       .  A
O1448     Mg1478   2.322       .  S
C1449      O1462   1.275       .  A
C1449      O1454   1.271       .  A
C1449      C1681   1.493       .  S
C1450      O1477   1.268       .  A
C1450      C1668   1.480       .  S
Mg1451     O1458   2.160       .  S
Mg1451     O1459   2.148       .  S
Mg1451     O1452   2.315       .  S
Mg1451     O1453   2.318       .  S
Mg1451     O3496   2.295       .  S
O1453      C1457   1.274       .  A
O1454     Mg1461   2.293       .  S
O1455      C1474   1.266       .  A
O1456      C1476   1.278       .  A
O1456     Mg1472   2.317       .  S
O1458     Mg1472   2.146       .  S
O1458      C1469   1.232       .  S
O1459     Mg1478   2.169       .  S
O1460     Mg1472   2.324       .  S
Mg1461     O1477   2.289       .  S
O1462     Mg1478   2.320       .  S
H1463      C1468   1.081       .  S
O1464     Mg1472   2.159       .  S
O1464      C1467   1.236       .  S
H1465      C1467   1.081       .  S
H1466      C1469   1.081       .  S
O1471     Mg1478   2.323       .  S
C1474      O1479   1.275       .  A
C1474      C1614   1.469       .  S
O1475      C1476   1.271       .  A
C1476      C1658   1.484       .  S
O1480     Mg3467   2.295   1_455  S
C1481      C1801   1.486       .  S
C1481      C1482   1.409       .  A
C1481      C1486   1.400       .  A
C1482      C1831   1.479       .  S
C1482      C1483   1.390       .  A
C1483      H1488   1.084       .  S
C1483      C1484   1.400       .  A
C1484      C1688   1.493       .  S
C1484      C1485   1.432       .  A
C1485      C1661   1.499       .  S
C1485      C1486   1.411       .  A
C1486      H1487   1.084       .  S
C1489      C1891   1.502       .  S
C1489      C1490   1.425       .  A
C1489      C1494   1.412       .  A
C1490      C1981   1.491       .  S
C1490      C1491   1.395   1_455  A
C1491      H1496   1.086       .  S
C1491      C3508   1.394       .  A
C1492      C1711   1.491       .  S
C1492      C3507   1.394       .  A
C1492      C1493   1.425       .  A
C1493      C1678   1.504       .  S
C1493      C3510   1.412       .  A
C1494      H1495   1.084       .  S
C1494      C3509   1.412   1_455  A
C1497      C1871   1.477       .  S
C1497      C1498   1.416       .  A
C1497      C1502   1.396       .  A
C1498      C1991   1.492       .  S
C1498      C1499   1.404       .  A
C1499      H1504   1.084       .  S
C1499      C1500   1.407       .  A
C1500      C1768   1.486       .  S
C1500      C1501   1.420       .  A
C1501      C1671   1.488       .  S
C1501      C1502   1.396       .  A
C1502      H1503   1.085       .  S
C1505      C1898   1.497       .  S
C1505      C1506   1.423       .  A
C1505      C1510   1.408       .  A
C1506      C1861   1.499       .  S
C1506      C1507   1.409   1_565  A
C1507      H1512   1.084       .  S
C1508      C1701   1.497       .  S
C1508      C1509   1.421       .  A
C1509      C1758   1.495       .  S
C1510      H1511   1.084       .  S
O1513     Mg3531   2.154   1_455  S
O1513     Mg1521   2.174   1_554  S
O1513      C1548   1.232       .  S
C1514      O1527   1.233       .  S
C1514      O1551   1.267       .  A
C1514      H1553   1.080       .  S
Mg1515     O3529   2.154       .  S
Mg1515     O1544   2.194   1_554  S
Mg1515     O1559   2.307       .  S
Mg1515     O1555   2.282       .  S
Mg1515     O1526   2.294       .  S
O1516     Mg1558   2.196   1_554  S
O1516     Mg1541   2.175       .  S
O1516      C1537   1.233       .  S
O1517     Mg1541   2.292       .  S
C1518      O1520   1.274   1_545  A
O1519      C3563   1.268   1_455  A
O1519     Mg1521   2.300       .  S
O1520     Mg1552   2.291       .  S
Mg1521     O1535   2.263       .  S
Mg1521     O1523   2.299   1_556  S
C1522      O3576   1.270       .  A
C1522      O1528   1.275   1_654  A
C1522      C3330   1.463   1_654  S
O1523      C1530   1.273       .  A
H1524      C1537   1.080       .  S
C1525      O1539   1.232       .  S
C1525      H1550   1.080       .  S
O1526      C1549   1.267       .  A
O1527     Mg1541   2.178   1_556  S
O1528     Mg1558   2.302       .  S
C1529      O1542   1.274       .  A
C1529      O1534   1.271   1_556  A
Mg1531     O1539   2.179   1_554  S
Mg1531     O1532   2.300   1_554  S
Mg1531     O1533   2.296       .  S
Mg1531     O1560   2.260       .  S
O1533      C3553   1.268       .  A
O1534     Mg1541   2.272       .  S
O1535      C1554   1.270   1_455  A
O1536      C1556   1.269   1_556  A
O1536     Mg1552   2.264       .  S
C1537      O3549   1.268   1_455  A
O1538     Mg1552   2.175   1_554  S
O1538      C1549   1.233       .  S
O1539     Mg3574   2.157       .  S
O1540     Mg1552   2.292   1_545  S
Mg1541     O1557   2.303       .  S
O1542     Mg1558   2.287       .  S
H1543      C1548   1.080       .  S
O1544     Mg1552   2.174       .  S
O1544      C1547   1.234       .  S
H1545      C1547   1.080       .  S
H1546      C1549   1.082       .  S
C1547      O3535   1.268       .  A
O1551     Mg1558   2.291       .  S
C1554      O3575   1.276   1_556  A
O1555      C1556   1.274       .  A
Mg1558     O3555   2.157   1_455  S
O1559      C3570   1.276   1_554  A
O1560      C3538   1.270       .  A
O1561     Mg1563   2.167       .  S
O1561     Mg1569   2.173       .  S
O1561      C1596   1.234       .  S
C1562      O1575   1.233       .  S
C1562      O1599   1.268       .  A
C1562      H1601   1.082       .  S
Mg1563     O1592   2.189       .  S
Mg1563     O1607   2.272       .  S
Mg1563     O1603   2.275       .  S
Mg1563     O1574   2.293       .  S
O1564     Mg1606   2.173       .  S
O1564     Mg1589   2.163       .  S
O1564      C1585   1.236       .  S
O1565      C1596   1.269       .  A
O1565     Mg1589   2.303       .  S
C1566      O1568   1.275       .  A
C1566      O1580   1.277       .  A
O1567      C1595   1.269       .  A
O1567     Mg1569   2.294       .  S
O1568     Mg1600   2.306       .  S
Mg1569     O1575   2.149       .  S
Mg1569     O1583   2.265       .  S
Mg1569     O1571   2.311       .  S
C1570      O1608   1.269       .  A
C1570      O1576   1.267       .  A
O1571      C1578   1.276       .  A
H1572      C1585   1.080       .  S
C1573      O1587   1.235       .  S
C1573      O1588   1.272       .  A
C1573      H1598   1.080       .  S
O1574      C1597   1.267       .  A
O1575     Mg1589   2.160       .  S
O1576     Mg1606   2.268       .  S
C1577      O1590   1.270       .  A
C1577      O1582   1.273       .  A
C1578      O1605   1.272       .  A
Mg1579     O1586   2.146       .  S
Mg1579     O1587   2.160       .  S
Mg1579     O1580   2.328       .  S
Mg1579     O1581   2.310       .  S
Mg1579     O1608   2.259       .  S
O1581      C1585   1.272       .  A
O1582     Mg1589   2.296       .  S
O1583      C1602   1.271       .  A
O1584      C1604   1.276       .  A
O1584     Mg1600   2.300       .  S
O1586     Mg1600   2.148       .  S
O1586      C1597   1.233       .  S
O1587     Mg1606   2.179       .  S
O1588     Mg1600   2.316       .  S
Mg1589     O1605   2.287       .  S
O1590     Mg1606   2.281       .  S
H1591      C1596   1.080       .  S
O1592     Mg1600   2.156       .  S
O1592      C1595   1.235       .  S
H1593      C1595   1.081       .  S
H1594      C1597   1.081       .  S
O1599     Mg1606   2.300       .  S
C1602      O1607   1.268       .  A
O1603      C1604   1.270       .  A
O1609     Mg1611   2.143       .  S
O1609     Mg1617   2.161       .  S
O1609      C1644   1.232       .  S
C1610      O1623   1.233       .  S
C1610      O1647   1.266       .  A
C1610      H1649   1.080       .  S
Mg1611     O1640   2.183       .  S
Mg1611     O1655   2.273       .  S
Mg1611     O1651   2.247       .  S
Mg1611     O1622   2.294       .  S
O1612     Mg1654   2.189       .  S
O1612     Mg1637   2.182       .  S
O1612      C1633   1.235       .  S
O1613      C1644   1.267       .  A
O1613     Mg1637   2.295       .  S
C1614      O1616   1.267       .  A
C1614      O1628   1.279       .  A
O1615      C1643   1.270       .  A
O1615     Mg1617   2.298       .  S
O1616     Mg1648   2.249       .  S
Mg1617     O1623   2.136       .  S
Mg1617     O1631   2.247       .  S
Mg1617     O1619   2.312       .  S
C1618      O1656   1.274       .  A
C1618      O1624   1.273       .  A
O1619      C1626   1.275       .  A
H1620      C1633   1.080       .  S
C1621      O1635   1.234       .  S
C1621      O1636   1.270       .  A
C1621      H1646   1.080       .  S
O1622      C1645   1.267       .  A
O1623     Mg1637   2.156       .  S
O1624     Mg1654   2.304       .  S
C1625      O1638   1.275       .  A
C1625      O1630   1.267       .  A
C1626      O1653   1.273       .  A
Mg1627     O1634   2.153       .  S
Mg1627     O1635   2.165       .  S
Mg1627     O1628   2.335       .  S
Mg1627     O1629   2.310       .  S
Mg1627     O1656   2.277       .  S
O1629      C1633   1.271       .  A
O1630     Mg1637   2.263       .  S
O1631      C1650   1.269       .  A
O1632      C1652   1.268       .  A
O1632     Mg1648   2.280       .  S
O1634     Mg1648   2.168       .  S
O1634      C1645   1.233       .  S
O1635     Mg1654   2.184       .  S
O1636     Mg1648   2.310       .  S
Mg1637     O1653   2.293       .  S
O1638     Mg1654   2.285       .  S
H1639      C1644   1.080       .  S
O1640     Mg1648   2.153       .  S
O1640      C1643   1.236       .  S
H1641      C1643   1.080       .  S
H1642      C1645   1.082       .  S
O1647     Mg1654   2.287       .  S
C1650      O1655   1.268       .  A
O1651      C1652   1.268       .  A
C1657      C1658   1.409       .  A
C1657      C1662   1.408       .  A
C1657     Br1664   1.935       .  S
C1658      C1659   1.415       .  A
C1659      C1660   1.410       .  A
C1659     Br1666   1.934       .  S
C1660      C1661   1.413       .  A
C1660     Br1665   1.928       .  S
C1661      C1662   1.421       .  A
C1662     Br1663   1.935       .  S
C1667      C1668   1.416       .  A
C1667      C1672   1.405       .  A
C1667     Br1674   1.930       .  S
C1668      C1669   1.409       .  A
C1669      C1670   1.407       .  A
C1669     Br1676   1.928       .  S
C1670      C1671   1.411       .  A
C1670     Br1675   1.924       .  S
C1671      C1672   1.409       .  A
C1672     Br1673   1.936       .  S
C1677      C3694   1.422   1_455  A
C1677      C3698   1.418       .  A
C1677     Br1684   1.933       .  S
C1678      C3693   1.422       .  A
C1678      C1679   1.409       .  A
C1679      C1680   1.405       .  A
C1679     Br1686   1.926       .  S
C1680      C1681   1.414       .  A
C1680     Br1685   1.933       .  S
C1681      C1682   1.411       .  A
C1682      C3693   1.418       .  A
C1682     Br3699   1.929       .  S
Br1683     C3698   1.929       .  S
C1687      C1688   1.421       .  A
C1687      C1692   1.406       .  A
C1687     Br1694   1.938       .  S
C1688      C1689   1.411       .  A
C1689      C1690   1.406       .  A
C1689     Br1696   1.927       .  S
C1690      C1691   1.414       .  A
C1691      C1692   1.408       .  A
C1692     Br1693   1.934   1_565  S
C1697      C1698   1.419       .  A
C1697      C1702   1.411       .  A
C1697     Br1704   1.937       .  S
C1698      C1699   1.415       .  A
C1699      C1700   1.413       .  A
C1699     Br1706   1.932       .  S
C1700      C1701   1.411       .  A
C1700     Br1705   1.924       .  S
C1701      C1702   1.411       .  A
C1707      C1708   1.416       .  A
C1707      C1712   1.408       .  A
C1707     Br1714   1.937       .  S
C1708      C1709   1.423       .  A
C1709      C1710   1.406       .  A
C1709     Br3732   1.938       .  S
C1710      C1711   1.407       .  A
C1710     Br3731   1.930       .  S
C1711      C1712   1.418       .  A
C1712     Br1713   1.939       .  S
Br1715     C3726   1.930       .  S
Br1716     C3725   1.938   1_455  S
C1717      C1718   1.411       .  A
C1717      C1722   1.416       .  A
C1717     Br3740   1.929       .  S
C1718      C3454   1.486   1_455  S
C1718      C1719   1.411       .  A
C1719      C1720   1.406       .  A
C1719     Br1726   1.939   1_455  S
C1720      C1721   1.417       .  A
C1720     Br1725   1.926       .  S
C1721      C1722   1.418       .  A
C1722     Br1723   1.927       .  S
Br1724     C3733   1.929       .  S
C1727      C1728   1.406       .  A
C1727      C1732   1.411       .  A
C1727     Br1734   1.925       .  S
C1728      C1729   1.410       .  A
C1729      C1730   1.415       .  A
C1729     Br1736   1.935       .  S
C1730      C1731   1.430       .  A
C1730     Br3751   1.937   1_455  S
C1731      C3418   1.512   1_455  S
C1731      C1732   1.424       .  A
C1732     Br1733   1.936       .  S
Br1735     C3746   1.937       .  S
C1737      C1738   1.415       .  A
C1737      C1742   1.408       .  A
C1737     Br1744   1.932       .  S
C1739     Br1746   1.938       .  S
C1740      C1741   1.411       .  A
C1741      C1742   1.410       .  A
C1742     Br1743   1.927       .  S
C1747      C1748   1.408       .  A
C1747      C1752   1.404       .  A
C1747     Br1754   1.935       .  S
C1748      C1749   1.414       .  A
C1749      C1750   1.403       .  A
C1749     Br1756   1.933       .  S
C1750      C1751   1.408       .  A
C1750     Br1755   1.925       .  S
C1751      C1752   1.416       .  A
C1752     Br1753   1.927       .  S
C1757     Br1764   1.926       .  S
C1758      C1759   1.412       .  A
C1759      C1760   1.407       .  A
C1759     Br1766   1.922       .  S
C1760      C1761   1.410       .  A
C1760     Br1765   1.932       .  S
C1761      C1762   1.422       .  A
C1767      C1768   1.404       .  A
C1767      C1772   1.403       .  A
C1767     Br1774   1.928       .  S
C1768      C1769   1.408       .  A
C1769      C1770   1.408       .  A
C1769     Br1776   1.932       .  S
C1770      C1771   1.422       .  A
C1770     Br1775   1.934       .  S
C1771      C1772   1.421       .  A
C1772     Br1773   1.938       .  S
C1777      C1778   1.412       .  A
C1777      C1782   1.412       .  A
C1777     Br1784   1.930       .  S
C1778      C1779   1.402       .  A
C1779      C1780   1.412       .  A
C1779     Br1786   1.931       .  S
C1780      C1781   1.432       .  A
C1780     Br3801   1.938       .  S
C1781      C1782   1.420       .  A
C1782     Br1783   1.937       .  S
Br1785     C3796   1.938       .  S
C1787      C1788   1.421       .  A
C1787      C1792   1.416       .  A
C1787     Br1794   1.933       .  S
C1788      C1789   1.425       .  A
C1789      C1790   1.416       .  A
C1789     Br3812   1.936       .  S
C1790      C1791   1.409       .  A
C1790     Br1795   1.928       .  S
C1791      C1792   1.410       .  A
C1792     Br1793   1.927       .  S
Br1796     C3805   1.936       .  S
C1797      C1798   1.424       .  A
C1797      C1802   1.408       .  A
C1797     Br1804   1.936       .  S
C1798      C1799   1.427       .  A
C1799      C1800   1.407       .  A
C1799     Br1806   1.937       .  S
C1800      C1801   1.400       .  A
C1800     Br1805   1.929       .  S
C1801      C1802   1.406       .  A
C1802     Br1803   1.932       .  S
C1807      C1808   1.420       .  A
C1807      C1812   1.405       .  A
C1807     Br1814   1.936       .  S
C1808      C1809   1.414       .  A
C1809      C1810   1.402       .  A
C1809     Br1816   1.939       .  S
C1810      C1811   1.410       .  A
C1810     Br1815   1.921       .  S
C1811      C1812   1.407       .  A
C1812     Br1813   1.928       .  S
C1817      C1818   1.407       .  A
C1817      C1822   1.405       .  A
C1817     Br1824   1.919       .  S
C1818      C1819   1.418       .  A
C1819      C1820   1.418       .  A
C1819     Br1826   1.928       .  S
C1820      C1821   1.415       .  A
C1820     Br1825   1.931   1_565  S
C1821      C1822   1.414       .  A
C1822     Br1823   1.929       .  S
C1827      C1828   1.420       .  A
C1827      C1832   1.405       .  A
C1827     Br1834   1.929       .  S
C1828      C1829   1.412       .  A
C1829      C1830   1.401       .  A
C1829     Br1836   1.925       .  S
C1830      C1831   1.405       .  A
C1830     Br1835   1.927       .  S
C1831      C1832   1.405       .  A
C1832     Br1833   1.933       .  S
C1837      C1838   1.413       .  A
C1837      C1842   1.416       .  A
C1837     Br1844   1.933       .  S
C1838      C1839   1.414       .  A
C1839      C1840   1.413       .  A
C1839     Br1846   1.927       .  S
C1840      C1841   1.414       .  A
C1840     Br1845   1.932       .  S
C1841      C1842   1.423       .  A
C1842     Br3859   1.936       .  S
Br1843     C3858   1.936       .  S
C1847      C1848   1.410       .  A
C1847      C1852   1.405       .  A
C1847     Br1854   1.928       .  S
C1848      C1849   1.416       .  A
C1849      C1850   1.407       .  A
C1849     Br1856   1.932       .  S
C1850      C1851   1.413       .  A
C1850     Br1855   1.935       .  S
C1851      C1852   1.417       .  A
C1852     Br1853   1.936       .  S
C1857      C1858   1.418   1_545  A
C1857      C1862   1.409       .  A
C1858      C1859   1.418       .  A
C1859      C1860   1.411       .  A
C1859     Br1866   1.935       .  S
C1860      C1861   1.411       .  A
C1860     Br1865   1.928       .  S
C1861      C1862   1.408   1_565  A
C1867      C1868   1.422       .  A
C1867      C1872   1.403       .  A
C1867     Br1874   1.933       .  S
C1868      C1869   1.419       .  A
C1869      C1870   1.405       .  A
C1869     Br1876   1.931       .  S
C1870      C1871   1.404       .  A
C1870     Br1875   1.928       .  S
C1871      C1872   1.403       .  A
C1872     Br1873   1.935       .  S
C1877      C1878   1.410       .  A
C1877      C1882   1.404       .  A
C1877     Br1884   1.927       .  S
C1878      C1879   1.416       .  A
C1879      C1880   1.402       .  A
C1879     Br1886   1.938       .  S
C1880      C1881   1.413       .  A
C1880     Br1885   1.938       .  S
C1881      C1882   1.413       .  A
C1882     Br1883   1.933       .  S
C1887      C1888   1.422       .  A
C1887      C1892   1.411       .  A
C1887     Br1894   1.937       .  S
C1888      C1889   1.416       .  A
C1889      C1890   1.416   1_455  A
C1889     Br1896   1.932   1_455  S
C1890      C1891   1.417   1_655  A
C1890     Br3911   1.935       .  S
C1891      C1892   1.409       .  A
C1892     Br1893   1.928       .  S
Br1895     C3906   1.935       .  S
C1897      C1898   1.413       .  A
C1897      C1902   1.404       .  A
C1897     Br1904   1.927   1_565  S
C1898      C1899   1.416       .  A
C1899      C1900   1.414       .  A
C1899     Br1906   1.924       .  S
C1900      C1901   1.410       .  A
C1900     Br1905   1.929       .  S
C1901      C1902   1.413       .  A
C1902     Br1903   1.937   1_565  S
C1907      C1908   1.415       .  A
C1907      C1912   1.416       .  A
C1907     Br1914   1.935       .  S
C1908      C1909   1.418       .  A
C1909      C1910   1.418       .  A
C1909     Br1916   1.925       .  S
C1910      C1911   1.412       .  A
C1910     Br3931   1.929       .  S
C1911      C3094   1.504       .  S
C1911      C1912   1.420       .  A
C1912     Br1913   1.934       .  S
Br1915     C3926   1.929       .  S
C1917      C1918   1.419       .  A
C1917      C1922   1.412       .  A
C1917     Br1924   1.933       .  S
C1918      C1919   1.419       .  A
C1919      C1920   1.415       .  A
C1919     Br3942   1.934       .  S
C1920      C1921   1.417       .  A
C1920     Br1925   1.936       .  S
C1921      C1922   1.411       .  A
C1922     Br1923   1.926       .  S
Br1926     C3935   1.934   1_455  S
C1927      C1928   1.418       .  A
C1927      C1932   1.412       .  A
C1927     Br1934   1.937       .  S
C1928      C1929   1.422       .  A
C1929      C1930   1.413       .  A
C1929     Br1936   1.936       .  S
C1930      C1931   1.410       .  A
C1930     Br1935   1.928       .  S
C1931      C1932   1.417       .  A
C1932     Br1933   1.936       .  S
C1937     Br1944   1.935       .  S
C1938      C1939   1.431       .  A
C1939      C1940   1.410       .  A
C1939     Br1946   1.939       .  S
C1940      C1941   1.404       .  A
C1940     Br1945   1.932       .  S
C1941      C1942   1.404       .  A
C1947      C1948   1.418       .  A
C1947      C1952   1.403       .  A
C1947     Br1954   1.935       .  S
C1948      C1949   1.427       .  A
C1949      C1950   1.405       .  A
C1949     Br1956   1.939       .  S
C1950      C1951   1.402       .  A
C1950     Br1955   1.933       .  S
C1951      C1952   1.404       .  A
C1952     Br1953   1.928       .  S
C1957      C1958   1.408       .  A
C1957      C1962   1.405       .  A
C1957     Br1964   1.924       .  S
C1958      C1959   1.407       .  A
C1959      C1960   1.406       .  A
C1959     Br1966   1.933       .  S
C1960      C1961   1.418       .  A
C1960     Br1965   1.933       .  S
C1961      C1962   1.411       .  A
C1962     Br1963   1.931       .  S
C1967      C1968   1.409       .  A
C1967      C1972   1.406       .  A
C1967     Br1974   1.925       .  S
C1968      C1969   1.416       .  A
C1969      C1970   1.410       .  A
C1969     Br1976   1.937       .  S
C1970      C1971   1.417       .  A
C1970     Br1975   1.935       .  S
C1971      C1972   1.415       .  A
C1977      C1978   1.411       .  A
C1977      C1982   1.405       .  A
C1977     Br1984   1.937       .  S
C1978      C1979   1.420   1_455  A
C1979      C3996   1.409       .  A
C1979     Br4002   1.936       .  S
C1980      C3995   1.409       .  A
C1980      C3997   1.410       .  A
C1980     Br1985   1.927       .  S
C1981      C3996   1.410   1_455  A
C1981      C1982   1.419       .  A
C1982     Br1983   1.938       .  S
Br1986     C3995   1.936       .  S
C1987      C1988   1.427       .  A
C1987      C1992   1.410       .  A
C1987     Br1994   1.937       .  S
C1988      C1989   1.428       .  A
C1989      C1990   1.412       .  A
C1989     Br1996   1.936       .  S
C1990      C1991   1.404       .  A
C1990     Br1995   1.929       .  S
C1991      C1992   1.405       .  A
C1992     Br1993   1.931       .  S
C1997      C1998   1.410       .  A
C1997      C2002   1.411       .  A
C1997     Br2004   1.934       .  S
C1998      C1999   1.405       .  A
C1999      C4016   1.402       .  A
C1999     Br4022   1.925       .  S
C2000      C4015   1.402       .  A
C2000      C4017   1.413       .  A
C2000     Br2005   1.933   1_655  S
C2001      C3042   1.488       .  S
C2001      C4016   1.413       .  A
C2001      C2002   1.422       .  A
C2002     Br2003   1.935       .  S
Br2006     C4015   1.925       .  S
C2007      C2008   1.421       .  A
C2007      C2012   1.412       .  A
C2007     Br2014   1.937       .  S
C2008      C2009   1.424       .  A
C2009      C2010   1.409       .  A
C2009     Br2016   1.937       .  S
C2010      C2011   1.407       .  A
C2010     Br2015   1.930       .  S
C2011      C2012   1.414       .  A
C2012     Br2013   1.937       .  S
O2017     Mg2019   2.136       .  S
O2017     Mg2025   2.156       .  S
O2017      C2052   1.232       .  S
C2018      O2031   1.233       .  S
C2018      O2055   1.266       .  A
C2018      H2057   1.081       .  S
Mg2019     O2048   2.185       .  S
Mg2019     O2063   2.264       .  S
Mg2019     O2059   2.246       .  S
Mg2019     O2030   2.291       .  S
O2020     Mg2062   2.180       .  S
O2020     Mg2045   2.148       .  S
O2020      C2041   1.236       .  S
O2021      C2052   1.267       .  A
O2021     Mg2045   2.294       .  S
C2022      O2024   1.269       .  A
C2022      O2036   1.276       .  A
C2022      C2996   1.509       .  S
O2023      C2051   1.269       .  A
O2023     Mg2025   2.295       .  S
O2024     Mg2056   2.256       .  S
Mg2025     O2031   2.150       .  S
Mg2025     O2027   2.317       .  S
C2026      O2064   1.272       .  A
C2026      O2032   1.269       .  A
C2026      C2578   1.453       .  S
O2027      C2034   1.276       .  A
H2028      C2041   1.082       .  S
C2029      O2043   1.233       .  S
C2029      O2044   1.268       .  A
C2029      H2054   1.081       .  S
O2030      C2053   1.267       .  A
O2031     Mg2045   2.158       .  S
O2032     Mg2062   2.276       .  S
C2033      O2046   1.270       .  A
C2033      O2038   1.272       .  A
C2033      C3016   1.501       .  S
C2034      O2061   1.272       .  A
Mg2035     O2042   2.146       .  S
Mg2035     O2043   2.152       .  S
Mg2035     O2036   2.337       .  S
Mg2035     O2037   2.304       .  S
Mg2035     O2064   2.262       .  S
O2037      C2041   1.270       .  A
O2038     Mg2045   2.292       .  S
O2039      C2058   1.273       .  A
O2040      C2060   1.271       .  A
O2040     Mg2056   2.269       .  S
O2042     Mg2056   2.150       .  S
O2042      C2053   1.234       .  S
O2043     Mg2062   2.155       .  S
O2044     Mg2056   2.304       .  S
Mg2045     O2061   2.247       .  S
O2046     Mg2062   2.266       .  S
H2047      C2052   1.081       .  S
O2048     Mg2056   2.143       .  S
O2048      C2051   1.235       .  S
H2049      C2051   1.081       .  S
H2050      C2053   1.081       .  S
O2055     Mg2062   2.286       .  S
C2058      C2610   1.456       .  S
O2059      C2060   1.267       .  A
C2060      C2986   1.485       .  S
C2065      C3019   1.494       .  S
C2065      C2066   1.428       .  A
C2065      C2070   1.404       .  A
C2066      C2976   1.493       .  S
C2066      C2067   1.405       .  A
C2067      H2072   1.084       .  S
C2067      C2068   1.396       .  A
C2068      C2966   1.488       .  S
C2068      C2069   1.413       .  A
C2069      C2959   1.481       .  S
C2069      C2070   1.397       .  A
C2070      H2071   1.084       .  S
C2073      C3006   1.489       .  S
C2073      C2074   1.415       .  A
C2073      C2078   1.400       .  A
C2074      C2949   1.497       .  S
C2074      C2075   1.404       .  A
C2075      H2080   1.084       .  S
C2075      C2076   1.414       .  A
C2076      C2939   1.502       .  S
C2076      C2077   1.432       .  A
C2077      C2929   1.503       .  S
C2077      C2078   1.406       .  A
C2078      H2079   1.084       .  S
O2081     Mg2083   2.139       .  S
O2081     Mg2089   2.135       .  S
O2081      C2116   1.237       .  S
C2082      O2095   1.233       .  S
C2082      O2119   1.268       .  A
C2082      H2121   1.081       .  S
Mg2083     O2112   2.165       .  S
Mg2083     O3135   2.326       .  S
Mg2083     O2123   2.248       .  S
Mg2083     O2094   2.311       .  S
O2084     Mg2126   2.166       .  S
O2084     Mg2109   2.165       .  S
O2084      C2105   1.236       .  S
O2085      C2116   1.274       .  A
O2085     Mg2109   2.317       .  S
C2086      O2088   1.277       .  A
C2086      O2100   1.275       .  A
O2087      C2115   1.276       .  A
O2087     Mg2089   2.323       .  S
O2088     Mg2120   2.328       .  S
Mg2089     O2095   2.136       .  S
Mg2089     O3111   2.253       .  S
Mg2089     O2091   2.292       .  S
C2090      O2128   1.270       .  A
C2090      C2612   1.464       .  S
O2091      C2098   1.268       .  A
H2092      C2105   1.081       .  S
C2093      O2107   1.236       .  S
C2093      O2108   1.272       .  A
C2093      H2118   1.081       .  S
O2094      C2117   1.270       .  A
O2095     Mg2109   2.131       .  S
O2096     Mg2126   2.293       .  S
C2097      O2110   1.277       .  A
C2097      O2102   1.274       .  A
C2097      C2896   1.502       .  S
C2098      O2125   1.272       .  A
C2098      C2909   1.484       .  S
Mg2099     O2106   2.161       .  S
Mg2099     O2107   2.170       .  S
Mg2099     O2100   2.315       .  S
Mg2099     O2101   2.303       .  S
O2101      C2105   1.271       .  A
O2102     Mg2109   2.305       .  S
O2103      C2122   1.264       .  A
O2103     Mg3097   2.254   1_545  S
O2104      C2124   1.277       .  A
O2104     Mg2120   2.324       .  S
O2106     Mg2120   2.142       .  S
O2106      C2117   1.234       .  S
O2107     Mg2126   2.175       .  S
O2108     Mg2120   2.315       .  S
Mg2109     O2125   2.296       .  S
O2110     Mg2126   2.315       .  S
H2111      C2116   1.081       .  S
O2112     Mg2120   2.195       .  S
O2112      C2115   1.239       .  S
H2113      C2115   1.081       .  S
H2114      C2117   1.082       .  S
O2119     Mg2126   2.299       .  S
C2122      O2127   1.276       .  A
C2122      C2585   1.468       .  S
O2123      C2124   1.269       .  A
C2124      C3987   1.489       .  S
O2127     Mg3091   2.328   1_545  S
O2129     Mg2131   2.124       .  S
O2129     Mg2137   2.129       .  S
O2129      C2164   1.236       .  S
C2130      O2143   1.235       .  S
C2130      O2167   1.271       .  A
C2130      H2169   1.081       .  S
Mg2131     O2160   2.181       .  S
Mg2131     O2175   2.322       .  S
Mg2131     O2171   2.258       .  S
Mg2131     O2142   2.296       .  S
O2132     Mg2174   2.175       .  S
O2132     Mg2157   2.155       .  S
O2132      C2153   1.234       .  S
O2133      C2164   1.271       .  A
O2133     Mg2157   2.310       .  S
C2134      O2136   1.270       .  A
C2134      O2148   1.272       .  A
C2134      C3954   1.517       .  S
O2135      C2163   1.271       .  A
O2135     Mg2137   2.303       .  S
O2136     Mg2168   2.277       .  S
Mg2137     O2143   2.178       .  S
Mg2137     O2151   2.312       .  S
Mg2137     O2139   2.297       .  S
C2138      O2176   1.272       .  A
C2138      O3152   1.279       .  A
C2138      C2586   1.470       .  S
O2139      C2146   1.270       .  A
H2140      C2153   1.080       .  S
C2141      O2155   1.234       .  S
C2141      O2156   1.267       .  A
C2141      H2166   1.081       .  S
O2142      C2165   1.269       .  A
O2143     Mg2157   2.148       .  S
O2144      C3146   1.279       .  A
O2144     Mg2174   2.325       .  S
C2145      O2158   1.274       .  A
C2145      O2150   1.272       .  A
C2145      C2866   1.495       .  S
C2146      O2173   1.269       .  A
C2146      C2876   1.488       .  S
Mg2147     O2154   2.151       .  S
Mg2147     O2155   2.163       .  S
Mg2147     O2148   2.304       .  S
Mg2147     O2149   2.299       .  S
Mg2147     O3184   2.286       .  S
O2149      C2153   1.269       .  A
O2150     Mg2157   2.283       .  S
O2151      C2170   1.273       .  A
O2152      C2172   1.268       .  A
O2152     Mg2168   2.239       .  S
O2154     Mg2168   2.168       .  S
O2154      C2165   1.235       .  S
O2155     Mg2174   2.136       .  S
O2156     Mg2168   2.286       .  S
Mg2157     O2173   2.265       .  S
O2158     Mg2174   2.289       .  S
H2159      C2164   1.081       .  S
O2160     Mg2168   2.157       .  S
O2160      C2163   1.237       .  S
H2161      C2163   1.080       .  S
H2162      C2165   1.080       .  S
O2167     Mg2174   2.309       .  S
C2170      O2175   1.276       .  A
C2170      C2574   1.478       .  S
O2171      C2172   1.269       .  A
C2172      C2889   1.474       .  S
O2176     Mg3155   2.284   1_545  S
C2177      C2916   1.513       .  S
C2177      C2178   1.423       .  A
C2177      C2182   1.417       .  A
C2178      C2886   1.484       .  S
C2178      C2179   1.394       .  A
C2179      H2184   1.084       .  S
C2179      C2180   1.391       .  A
C2180      C2856   1.489       .  S
C2180      C2181   1.422       .  A
C2181      C2846   1.506       .  S
C2181      C2182   1.417       .  A
C2182      H2183   1.083       .  S
O2185     Mg2187   2.155   1_554  S
O2185     Mg3201   2.128       .  S
O2185      C2220   1.237       .  S
C2186      O2199   1.234       .  S
C2186      O2223   1.269       .  A
C2186      H2225   1.081       .  S
Mg2187     O3224   2.142   1_545  S
Mg2187     O3239   2.325   1_546  S
Mg2187     O3235   2.297   1_545  S
Mg2187     O2198   2.323       .  S
O2188     Mg3238   2.172   1_545  S
O2188     Mg2213   2.142       .  S
O2188      C2209   1.236       .  S
O2189      C2220   1.274       .  A
O2189     Mg2213   2.322       .  S
C2190      O2192   1.269       .  A
C2190      O2204   1.268       .  A
C2190      C2836   1.483       .  S
O2191      C2219   1.274       .  A
O2191     Mg2193   2.323       .  S
O2192     Mg2224   2.270       .  S
Mg2193     O3193   2.128       .  S
Mg2193     O2199   2.179       .  S
Mg2193     O2207   2.306       .  S
Mg2193     O3203   2.296       .  S
C2194      O2232   1.270   1_545  A
C2194      O2200   1.276   1_556  A
C2194      C3534   1.474       .  S
O2195      C2202   1.271       .  A
O2195     Mg3201   2.295       .  S
H2196      C2209   1.082       .  S
C2197      O2211   1.237       .  S
C2197      O2212   1.273       .  A
C2197      H2222   1.080   1_556  S
O2198      C2221   1.273       .  A
O2199     Mg3221   2.158       .  S
O2200     Mg3238   2.321   1_545  S
C2201      O2214   1.271       .  A
C2201      O2206   1.275       .  A
C2201      C2936   1.501       .  S
C2202      O2229   1.268       .  A
C2202      C2969   1.479       .  S
Mg2203     O2210   2.181       .  S
Mg2203     O3219   2.127       .  S
Mg2203     O3212   2.285       .  S
Mg2203     O2205   2.303   1_565  S
Mg2203     O2232   2.299       .  S
O2204     Mg3211   2.285       .  S
O2205      C2209   1.271   1_556  A
O2206     Mg2213   2.311       .  S
O2207      C2226   1.271       .  A
O2208      C2228   1.274       .  A
O2208     Mg2224   2.312       .  S
O2210     Mg3232   2.139       .  S
O2210      C2221   1.236   1_565  S
O2211     Mg3211   2.126       .  S
O2211     Mg2230   2.131   1_556  S
O2212     Mg2224   2.313       .  S
Mg2213     O3207   2.158       .  S
Mg2213     O2229   2.254       .  S
O2214     Mg3238   2.270   1_545  S
H2215      C2220   1.081   1_556  S
O2216     Mg3195   2.142       .  S
O2216     Mg2224   2.162       .  S
O2216      C2219   1.237   1_556  S
H2217      C2219   1.081   1_556  S
H2218      C2221   1.081       .  S
O2223     Mg2230   2.302       .  S
Mg2224     O3218   2.139       .  S
C2226      O2231   1.276       .  A
C2226      C2538   1.477       .  S
O2227      C2228   1.272       .  A
O2227     Mg3195   2.297       .  S
C2228      C2829   1.498       .  S
Mg2230     O3196   2.172       .  S
Mg2230     O3208   2.320       .  S
Mg2230     O3222   2.269       .  S
O2231     Mg3195   2.325   1_554  S
O2233     Mg2235   2.129   1_556  S
O2233     Mg2241   2.140       .  S
O2233      C2268   1.232       .  S
C2234      O2247   1.237       .  S
C2234      O2271   1.272       .  A
C2234      H2273   1.081       .  S
Mg2235     O2264   2.155       .  S
Mg2235     O2279   2.293       .  S
Mg2235     O2275   2.246       .  S
Mg2235     O2246   2.295       .  S
O2236     Mg2278   2.165       .  S
O2236     Mg2261   2.132       .  S
O2236      C2257   1.233       .  S
O2237      C2268   1.266       .  A
O2237     Mg2261   2.292       .  S
C2238      O2240   1.263       .  A
C2238      O2252   1.276       .  A
C2238      C2956   1.496       .  S
O2239      C2267   1.267   1_556  A
O2239     Mg2241   2.294       .  S
O2240     Mg2272   2.208       .  S
Mg2241     O2247   2.164       .  S
Mg2241     O2255   2.283       .  S
Mg2241     O2243   2.338       .  S
C2242      O2280   1.276       .  A
C2242      O2248   1.270   1_554  A
C2242      C2537   1.463   1_554  S
O2243      C2250   1.277       .  A
H2244      C2257   1.081       .  S
C2245      O2259   1.233       .  S
C2245      O2260   1.266       .  A
C2245      H2270   1.081   1_554  S
O2246      C2269   1.271       .  A
O2247     Mg2261   2.155       .  S
O2248     Mg2278   2.296       .  S
C2249      O2262   1.263       .  A
C2249      O2254   1.266       .  A
C2249      C2816   1.484       .  S
C2250      O2277   1.265       .  A
C2250      C2806   1.500       .  S
Mg2251     O2258   2.150       .  S
Mg2251     O2259   2.140       .  S
Mg2251     O2252   2.314       .  S
Mg2251     O2253   2.302       .  S
Mg2251     O2280   2.284       .  S
O2253      C2257   1.268   1_554  A
O2254     Mg2261   2.246       .  S
O2255      C2274   1.277       .  A
O2256      C2276   1.269       .  A
O2256     Mg2272   2.263       .  S
O2258     Mg2272   2.168       .  S
O2258      C2269   1.237       .  S
O2259     Mg2278   2.122   1_554  S
O2260     Mg2272   2.284       .  S
Mg2261     O2277   2.218       .  S
O2262     Mg2278   2.233       .  S
H2263      C2268   1.081   1_554  S
O2264     Mg2272   2.117       .  S
O2264      C2267   1.233       .  S
H2265      C2267   1.082       .  S
H2266      C2269   1.081       .  S
O2271     Mg2278   2.304       .  S
C2274      O2279   1.271   1_556  A
C2274      C2564   1.461   1_556  S
O2275      C2276   1.267       .  A
C2276      C2859   1.483       .  S
O2281     Mg2283   2.178   1_556  S
O2281      C2316   1.233       .  S
C2282      O2295   1.234       .  S
C2282      O2319   1.267       .  A
C2282      H2321   1.081       .  S
Mg2283     O2294   2.306       .  S
O2284     Mg2309   2.158       .  S
O2284      C2305   1.236       .  S
O2285      C2316   1.271       .  A
O2285     Mg2309   2.316       .  S
C2286      O2288   1.277       .  A
C2286      O2300   1.277       .  A
C2286      C2849   1.504       .  S
O2287      C2315   1.275   1_556  A
O2287     Mg2289   2.326   1_655  S
O2288     Mg2320   2.302       .  S
Mg2289     O2295   2.157   1_455  S
Mg2289     O2303   2.285       .  S
C2290      O2328   1.273       .  A
C2290      O2296   1.267   1_554  A
C2290      C2562   1.464   1_554  S
O2291      C2298   1.280       .  A
H2292      C2305   1.083       .  S
C2293      O2307   1.234       .  S
C2293      O2308   1.270       .  A
C2293      H2318   1.080   1_554  S
O2294      C2317   1.271       .  A
C2297      O2310   1.265       .  A
C2297      O2302   1.277       .  A
C2297      C2789   1.508       .  S
C2298      O2325   1.276       .  A
C2298      C2796   1.510       .  S
Mg2299     O2306   2.164       .  S
Mg2299     O2301   2.307       .  S
Mg2299     O2328   2.286       .  S
O2301      C2305   1.272   1_554  A
O2302     Mg2309   2.327       .  S
O2303      C2322   1.272       .  A
O2304      C2324   1.279       .  A
O2304     Mg2320   2.348       .  S
O2306      C2317   1.235       .  S
O2307     Mg2326   2.159   1_554  S
O2308     Mg2320   2.309       .  S
Mg2309     O2325   2.294       .  S
H2311      C2316   1.081   1_554  S
O2312     Mg2320   2.178       .  S
O2312      C2315   1.238       .  S
H2313      C2315   1.081       .  S
H2314      C2317   1.081       .  S
O2319     Mg2326   2.288       .  S
C2322      O2327   1.267   1_456  A
O2323      C2324   1.268       .  A
C2324      C2926   1.503       .  S
O2329     Mg2331   2.150       .  S
O2329     Mg2337   2.186       .  S
O2329      C2364   1.235       .  S
C2330      O2343   1.234       .  S
C2330      O2367   1.270       .  A
C2330      H2369   1.081       .  S
Mg2331     O2360   2.162       .  S
Mg2331     O2375   2.281   1_545  S
Mg2331     O2371   2.261       .  S
Mg2331     O2342   2.290       .  S
O2332     Mg2374   2.146       .  S
O2332     Mg2357   2.146       .  S
O2332      C2353   1.233       .  S
O2333      C2364   1.268       .  A
O2333     Mg2357   2.288       .  S
C2334      O2336   1.271       .  A
C2334      O2348   1.271       .  A
C2334      C2779   1.496       .  S
O2335      C2363   1.263       .  A
O2335     Mg2337   2.278       .  S
O2336     Mg2368   2.266       .  S
Mg2337     O2343   2.141       .  S
Mg2337     O3359   2.254   1_545  S
Mg2337     O2339   2.307       .  S
C2338      O2376   1.274       .  A
C2338      O2344   1.268       .  A
C2338      C2626   1.466       .  S
O2339      C2346   1.274       .  A
H2340      C2353   1.081       .  S
C2341      O2355   1.235       .  S
C2341      O2356   1.270       .  A
C2341      H2366   1.081       .  S
O2342      C2365   1.268       .  A
O2343     Mg2357   2.157       .  S
O2344     Mg2374   2.282       .  S
C2345      O2358   1.265       .  A
C2345      O2350   1.268       .  A
C2345      C2756   1.475       .  S
C2346      O2373   1.267       .  A
C2346      C3754   1.490   1_545  S
Mg2347     O2354   2.153       .  S
Mg2347     O2355   2.167       .  S
Mg2347     O2348   2.265       .  S
Mg2347     O2349   2.298       .  S
Mg2347     O2376   2.288       .  S
O2349      C2353   1.267       .  A
O2350     Mg2357   2.283       .  S
O2351      C2370   1.273       .  A
O2351     Mg3345   2.254       .  S
O2352      C2372   1.279       .  A
O2352     Mg2368   2.312       .  S
O2354     Mg2368   2.172       .  S
O2354      C2365   1.235       .  S
O2355     Mg2374   2.142       .  S
O2356     Mg2368   2.298       .  S
Mg2357     O2373   2.234       .  S
O2358     Mg2374   2.234       .  S
H2359      C2364   1.081   1_565  S
O2360     Mg2368   2.122       .  S
O2360      C2363   1.231       .  S
H2361      C2363   1.081       .  S
H2362      C2365   1.081       .  S
O2367     Mg2374   2.310       .  S
C2370      O3383   1.271       .  A
C2370      C2658   1.451       .  S
O2371      C2372   1.270       .  A
C2372      C2769   1.496       .  S
O2375      C3378   1.271       .  A
C2377      C2819   1.482       .  S
C2377      C2378   1.421       .  A
C2377      C2382   1.395       .  A
C2378      C2799   1.504       .  S
C2378      C2379   1.416       .  A
C2379      H2384   1.083       .  S
C2379      C2380   1.417       .  A
C2380      C2736   1.501       .  S
C2380      C2381   1.421       .  A
C2381      C2759   1.487       .  S
C2381      C2382   1.394       .  A
C2382      H2383   1.086       .  S
C2385      C2826   1.502       .  S
C2385      C2386   1.421       .  A
C2385      C2390   1.407       .  A
C2386      C2786   1.494       .  S
C2386      C2387   1.408       .  A
C2387      H2392   1.084       .  S
C2387      C2388   1.408       .  A
C2388      C2729   1.509       .  S
C2388      C2389   1.425       .  A
C2389      C2749   1.496       .  S
C2389      C2390   1.411       .  A
C2390      H2391   1.084       .  S
O2393     Mg2395   2.149       .  S
O2393     Mg2401   2.174       .  S
O2393      C2428   1.232       .  S
C2394      O2407   1.234       .  S
C2394      O2431   1.268       .  A
C2394      H2433   1.081       .  S
Mg2395     O2424   2.192       .  S
Mg2395     O2439   2.271   1_655  S
Mg2395     O2435   2.243       .  S
Mg2395     O2406   2.280       .  S
O2396     Mg2438   2.164       .  S
O2396     Mg2421   2.169       .  S
O2396      C2417   1.237       .  S
O2397      C2428   1.266       .  A
O2397     Mg2421   2.287       .  S
C2398      O2400   1.274       .  A
C2398      O2412   1.277       .  A
C2398      C2706   1.496       .  S
O2399      C2427   1.267       .  A
O2399     Mg2401   2.288       .  S
O2400     Mg2432   2.278       .  S
Mg2401     O2407   2.146       .  S
Mg2401     O2403   2.319       .  S
C2402      O2440   1.270       .  A
C2402      O2408   1.268       .  A
C2402      C2660   1.455       .  S
O2403      C2410   1.277       .  A
H2404      C2417   1.081       .  S
C2405      O2419   1.233       .  S
C2405      O2420   1.269       .  A
C2405      H2430   1.080       .  S
O2406      C2429   1.266       .  A
O2407     Mg2421   2.172       .  S
O2408     Mg3446   2.281       .  S
C2409      O2422   1.267       .  A
C2409      O2414   1.273       .  A
C2409      C3707   1.477   1_545  S
C2410      O2437   1.271       .  A
Mg2411     O2418   2.134       .  S
Mg2411     O2419   2.147       .  S
Mg2411     O2412   2.331       .  S
Mg2411     O2413   2.310       .  S
Mg2411     O3448   2.254   1_545  S
O2413      C2417   1.272       .  A
O2414     Mg2421   2.303       .  S
O2415      C2434   1.276       .  A
O2416      C2436   1.273       .  A
O2416     Mg2432   2.287       .  S
O2418     Mg2432   2.151       .  S
O2418      C2429   1.233       .  S
O2419     Mg2438   2.150       .  S
O2420     Mg2432   2.307       .  S
Mg2421     O2437   2.273       .  S
O2422     Mg2438   2.230       .  S
H2423      C2428   1.080       .  S
O2424     Mg2432   2.148       .  S
O2424      C2427   1.233       .  S
H2425      C2427   1.081       .  S
H2426      C2429   1.081       .  S
O2431     Mg2438   2.297       .  S
C2434      C2633   1.460       .  S
O2435      C2436   1.268       .  A
C2436      C2716   1.491       .  S
Mg2438     O3416   2.281   1_545  S
O2440     Mg3419   2.254       .  S
O2441     Mg2443   2.127       .  S
O2441     Mg2449   2.141       .  S
O2441      C2476   1.237       .  S
C2442      O2455   1.235       .  S
C2442      O2479   1.273       .  A
C2442      H2481   1.081       .  S
Mg2443     O2472   2.188       .  S
Mg2443     O2487   2.314       .  S
Mg2443     O2483   2.253       .  S
Mg2443     O2454   2.294       .  S
O2444     Mg2486   2.150       .  S
O2444     Mg2469   2.169       .  S
O2444      C2465   1.237       .  S
O2445      C2476   1.273       .  A
O2445     Mg2469   2.316       .  S
C2446      O2448   1.272       .  A
C2446      O2460   1.275       .  A
O2447      C2475   1.270       .  A
O2447     Mg2449   2.300       .  S
O2448     Mg2480   2.288       .  S
Mg2449     O2455   2.168       .  S
Mg2449     O2463   2.278       .  S
Mg2449     O2451   2.265       .  S
C2450      O2488   1.272       .  A
C2450      C2634   1.472       .  S
O2451      C2458   1.264       .  A
H2452      C2465   1.081       .  S
C2453      O2467   1.238       .  S
C2453      O2468   1.275       .  A
C2453      H2478   1.081   1_655  S
O2454      C2477   1.267       .  A
O2455     Mg2469   2.135       .  S
O2456     Mg2486   2.322   1_455  S
C2457      O2470   1.275       .  A
C2457      O2462   1.271       .  A
C2457      C2689   1.493       .  S
C2458      O2485   1.268       .  A
C2458      C2676   1.480       .  S
Mg2459     O2466   2.160       .  S
Mg2459     O2467   2.147       .  S
Mg2459     O2460   2.315       .  S
Mg2459     O2461   2.318       .  S
O2461      C2465   1.274       .  A
O2462     Mg2469   2.293       .  S
O2463      C2482   1.266       .  A
O2464      C2484   1.278       .  A
O2464     Mg2480   2.316       .  S
O2466     Mg2480   2.145       .  S
O2466      C2477   1.232       .  S
O2467     Mg2486   2.169       .  S
O2468     Mg2480   2.324       .  S
Mg2469     O2485   2.288       .  S
O2470     Mg2486   2.320       .  S
H2471      C2476   1.081       .  S
O2472     Mg2480   2.159       .  S
O2472      C2475   1.236       .  S
H2473      C2475   1.081       .  S
H2474      C2477   1.081       .  S
O2479     Mg2486   2.323       .  S
C2482      O2487   1.275       .  A
C2482      C2622   1.469       .  S
O2483      C2484   1.271       .  A
C2484      C2666   1.484       .  S
C2489      C2809   1.486       .  S
C2489      C2490   1.409       .  A
C2489      C2494   1.399       .  A
C2490      C2839   1.480       .  S
C2490      C2491   1.390       .  A
C2491      H2496   1.084       .  S
C2491      C2492   1.400       .  A
C2492      C2696   1.493       .  S
C2492      C2493   1.432       .  A
C2493      C2669   1.499       .  S
C2493      C2494   1.411       .  A
C2494      H2495   1.084       .  S
C2497      C2899   1.502       .  S
C2497      C2498   1.425       .  A
C2497      C2502   1.412       .  A
C2498      C2989   1.491       .  S
C2498      C2499   1.395       .  A
C2499      H2504   1.086       .  S
C2500      C2719   1.492       .  S
C2500      C2501   1.425       .  A
C2501      C2686   1.504       .  S
C2502      H2503   1.084       .  S
C2505      C2879   1.477       .  S
C2505      C2506   1.416       .  A
C2505      C2510   1.396       .  A
C2506      C2999   1.491       .  S
C2506      C2507   1.404       .  A
C2507      H2512   1.084       .  S
C2507      C2508   1.407       .  A
C2508      C2776   1.486       .  S
C2508      C2509   1.420       .  A
C2509      C2679   1.488       .  S
C2509      C2510   1.396       .  A
C2510      H2511   1.085       .  S
C2513      C2906   1.497       .  S
C2513      C2514   1.423       .  A
C2513      C2518   1.408       .  A
C2514      C2869   1.499       .  S
C2514      C2515   1.409       .  A
C2515      H2520   1.084       .  S
C2515      C3524   1.411       .  A
C2516      C2709   1.497       .  S
C2516      C3523   1.411       .  A
C2516      C2517   1.421       .  A
C2517      C2766   1.494       .  S
C2517      C3526   1.403   1_545  A
C2518      H2519   1.084       .  S
C2518      C3525   1.403       .  A
O2521     Mg2529   2.175   1_554  S
O2521      C2556   1.232       .  S
C2522      O2535   1.233       .  S
C2522      O2559   1.267       .  A
C2522      H2561   1.080       .  S
Mg2523     O2552   2.194   1_554  S
Mg2523     O2567   2.307       .  S
Mg2523     O2563   2.283       .  S
Mg2523     O2534   2.294       .  S
O2524     Mg2566   2.196   1_554  S
O2524     Mg2549   2.175       .  S
O2524      C2545   1.233       .  S
O2525      C3564   1.267       .  A
O2525     Mg2549   2.292   1_565  S
C2526      O2528   1.274       .  A
C2526      O3548   1.273       .  A
C2526      C3202   1.474       .  S
O2527     Mg2529   2.300       .  S
O2528     Mg2560   2.291       .  S
Mg2529     O3543   2.149       .  S
Mg2529     O2543   2.263       .  S
Mg2529     O2531   2.298   1_556  S
C2530      O2536   1.275   1_554  A
O2531      C2538   1.273       .  A
H2532      C2545   1.080       .  S
C2533      O2547   1.232       .  S
C2533      O3556   1.266       .  A
C2533      H2558   1.080       .  S
O2534      C2557   1.267       .  A
O2535     Mg3537   2.149   1_545  S
O2535     Mg2549   2.178   1_556  S
O2536     Mg2566   2.303       .  S
C2537      O2550   1.274       .  A
C2537      O2542   1.271   1_556  A
C2538      O3573   1.276       .  A
Mg2539     O3554   2.149   1_545  S
Mg2539     O2547   2.179   1_554  S
Mg2539     O2540   2.300   1_554  S
Mg2539     O2541   2.296       .  S
Mg2539     O2568   2.259       .  S
O2540      C3534   1.273       .  A
O2542     Mg2549   2.272       .  S
O2543      C2562   1.270       .  A
O2544      C2564   1.270   1_556  A
O2544     Mg2560   2.266       .  S
O2546     Mg3547   2.150       .  S
O2546     Mg2560   2.175   1_554  S
O2546      C2557   1.233       .  S
O2548      C3541   1.266       .  A
O2548     Mg2560   2.292       .  S
Mg2549     O2565   2.303       .  S
O2550     Mg2566   2.287       .  S
H2551      C2556   1.080       .  S
O2552     Mg2560   2.173       .  S
O2552      C2555   1.234       .  S
H2553      C2555   1.080       .  S
H2554      C2557   1.082       .  S
C2556      O3533   1.267       .  A
O2559     Mg2566   2.291       .  S
O2563      C2564   1.274       .  A
O2565      C3546   1.276   1_545  A
O2569     Mg2571   2.166       .  S
O2569     Mg2577   2.173       .  S
O2569      C2604   1.234       .  S
C2570      O2583   1.233       .  S
C2570      O2607   1.268       .  A
C2570      H2609   1.082       .  S
Mg2571     O2600   2.189       .  S
Mg2571     O2615   2.272       .  S
Mg2571     O2611   2.274       .  S
Mg2571     O2582   2.293       .  S
O2572     Mg2614   2.173       .  S
O2572     Mg2597   2.163       .  S
O2572      C2593   1.236       .  S
O2573      C2604   1.269       .  A
O2573     Mg2597   2.303       .  S
C2574      O2576   1.275       .  A
C2574      O2588   1.277       .  A
O2575      C2603   1.269       .  A
O2575     Mg2577   2.293       .  S
O2576     Mg2608   2.305       .  S
Mg2577     O2583   2.150       .  S
Mg2577     O2591   2.264       .  S
Mg2577     O2579   2.310       .  S
C2578      O2616   1.269       .  A
C2578      O2584   1.267       .  A
O2579      C2586   1.276       .  A
H2580      C2593   1.080       .  S
C2581      O2595   1.235       .  S
C2581      O2596   1.272       .  A
C2581      H2606   1.080       .  S
O2582      C2605   1.267       .  A
O2583     Mg2597   2.159       .  S
O2584     Mg2614   2.268       .  S
C2585      O2598   1.270       .  A
C2585      O2590   1.273       .  A
C2586      O2613   1.272       .  A
Mg2587     O2594   2.146       .  S
Mg2587     O2595   2.161       .  S
Mg2587     O2588   2.328       .  S
Mg2587     O2589   2.310       .  S
Mg2587     O2616   2.259       .  S
O2589      C2593   1.272       .  A
O2590     Mg2597   2.296       .  S
O2591      C2610   1.271       .  A
O2592      C2612   1.276       .  A
O2592     Mg2608   2.300       .  S
O2594     Mg2608   2.148       .  S
O2594      C2605   1.233       .  S
O2595     Mg2614   2.180       .  S
O2596     Mg2608   2.316       .  S
Mg2597     O2613   2.287       .  S
O2598     Mg2614   2.282       .  S
H2599      C2604   1.080       .  S
O2600     Mg2608   2.155       .  S
O2600      C2603   1.235       .  S
H2601      C2603   1.081       .  S
H2602      C2605   1.081       .  S
O2607     Mg2614   2.300       .  S
C2610      O2615   1.268       .  A
O2611      C2612   1.270       .  A
O2617     Mg2619   2.144       .  S
O2617     Mg2625   2.160       .  S
O2617      C2652   1.233       .  S
C2618      O2631   1.233       .  S
C2618      O2655   1.266       .  A
C2618      H2657   1.080       .  S
Mg2619     O2648   2.182       .  S
Mg2619     O2663   2.273       .  S
Mg2619     O2659   2.247       .  S
Mg2619     O2630   2.294       .  S
O2620     Mg2662   2.188       .  S
O2620     Mg2645   2.180       .  S
O2620      C2641   1.234       .  S
O2621      C2652   1.267       .  A
O2621     Mg2645   2.296       .  S
C2622      O2624   1.267       .  A
C2622      O2636   1.279       .  A
O2623      C2651   1.270       .  A
O2623     Mg2625   2.298       .  S
O2624     Mg2656   2.250       .  S
Mg2625     O2631   2.136       .  S
Mg2625     O2639   2.246       .  S
Mg2625     O2627   2.312       .  S
C2626      O2664   1.274       .  A
C2626      O2632   1.273       .  A
O2627      C2634   1.275       .  A
H2628      C2641   1.080       .  S
C2629      O2643   1.234       .  S
C2629      O2644   1.270       .  A
C2629      H2654   1.080       .  S
O2630      C2653   1.267       .  A
O2631     Mg2645   2.156       .  S
O2632     Mg2662   2.303       .  S
C2633      O2646   1.274       .  A
C2633      O2638   1.267       .  A
C2634      O2661   1.272       .  A
Mg2635     O2642   2.153       .  S
Mg2635     O2643   2.166       .  S
Mg2635     O2636   2.335       .  S
Mg2635     O2637   2.309       .  S
Mg2635     O2664   2.278       .  S
O2637      C2641   1.271       .  A
O2638     Mg2645   2.262       .  S
O2639      C2658   1.269       .  A
O2640      C2660   1.268       .  A
O2640     Mg2656   2.279       .  S
O2642     Mg2656   2.168       .  S
O2642      C2653   1.233       .  S
O2643     Mg2662   2.182       .  S
O2644     Mg2656   2.309       .  S
Mg2645     O2661   2.291       .  S
O2646     Mg2662   2.284       .  S
H2647      C2652   1.080       .  S
O2648     Mg2656   2.154       .  S
O2648      C2651   1.236       .  S
H2649      C2651   1.080       .  S
H2650      C2653   1.082       .  S
O2655     Mg2662   2.287       .  S
C2658      O2663   1.268       .  A
O2659      C2660   1.268       .  A
C2665      C2666   1.409       .  A
C2665      C2670   1.408       .  A
C2665     Br2672   1.935       .  S
C2666      C2667   1.415       .  A
C2667      C2668   1.409       .  A
C2667     Br2674   1.934       .  S
C2668      C2669   1.413       .  A
C2668     Br2673   1.928       .  S
C2669      C2670   1.421       .  A
C2670     Br2671   1.935       .  S
C2675      C2676   1.416       .  A
C2675      C2680   1.404       .  A
C2675     Br2682   1.930       .  S
C2676      C2677   1.408       .  A
C2677      C2678   1.406       .  A
C2677     Br2684   1.928       .  S
C2678      C2679   1.411       .  A
C2678     Br2683   1.923       .  S
C2679      C2680   1.409       .  A
C2680     Br2681   1.935       .  S
C2685     Br2692   1.933       .  S
C2686      C2687   1.409       .  A
C2687      C2688   1.405       .  A
C2687     Br2694   1.926       .  S
C2688      C2689   1.414       .  A
C2688     Br2693   1.933       .  S
C2689      C2690   1.412   1_655  A
C2695      C2696   1.421       .  A
C2695      C2700   1.406       .  A
C2695     Br2702   1.938       .  S
C2696      C2697   1.411       .  A
C2697      C2698   1.406       .  A
C2697     Br2704   1.928       .  S
C2698      C2699   1.414       .  A
C2698     Br3711   1.933       .  S
C2699      C3417   1.478       .  S
C2699      C2700   1.408       .  A
C2700     Br2701   1.934       .  S
Br2703     C3706   1.933       .  S
C2705      C2706   1.419       .  A
C2705      C2710   1.411       .  A
C2705     Br2712   1.937   1_545  S
C2706      C2707   1.415       .  A
C2707      C2708   1.413       .  A
C2707     Br2714   1.932       .  S
C2708      C2709   1.411       .  A
C2708     Br2713   1.924       .  S
C2709      C2710   1.411       .  A
C2710     Br3719   1.930   1_545  S
Br2711     C3718   1.930       .  S
C2715      C2716   1.415       .  A
C2715      C2720   1.408       .  A
C2715     Br2722   1.937       .  S
C2716      C2717   1.423       .  A
C2717      C2718   1.406   1_655  A
C2718      C2719   1.407   1_455  A
C2719      C2720   1.418       .  A
C2720     Br2721   1.939       .  S
C2725      C2726   1.411       .  A
C2725      C2730   1.416       .  A
C2726      C2727   1.411       .  A
C2727      C2728   1.406       .  A
C2727     Br2734   1.939       .  S
C2728      C2729   1.417       .  A
C2728     Br2733   1.926       .  S
C2729      C2730   1.418       .  A
C2730     Br2731   1.927       .  S
C2735      C2736   1.405       .  A
C2735      C2740   1.411       .  A
C2735     Br2742   1.926       .  S
C2736      C2737   1.409       .  A
C2737      C2738   1.415       .  A
C2737     Br2744   1.936       .  S
C2738      C2739   1.431       .  A
C2739      C2740   1.425       .  A
C2740     Br2741   1.936       .  S
C2745      C2746   1.415       .  A
C2745      C2750   1.408       .  A
C2745     Br2752   1.932       .  S
C2746      C3354   1.491       .  S
C2746      C3755   1.421       .  A
C2747      C3754   1.421   1_545  A
C2747      C3756   1.407   1_545  A
C2747     Br2754   1.938       .  S
C2748      C3755   1.407       .  A
C2748      C2749   1.411       .  A
C2748     Br3761   1.932       .  S
C2749      C2750   1.410       .  A
C2750     Br2751   1.927       .  S
Br2753     C3756   1.932   1_545  S
C2755      C2756   1.408       .  A
C2755      C2760   1.404       .  A
C2755     Br2762   1.935       .  S
C2756      C2757   1.414       .  A
C2757      C2758   1.403       .  A
C2757     Br2764   1.933       .  S
C2758      C2759   1.407       .  A
C2758     Br2763   1.925       .  S
C2759      C2760   1.416       .  A
C2760     Br2761   1.927       .  S
C2765      C3774   1.408       .  A
C2765      C3778   1.412       .  A
C2765     Br2772   1.926       .  S
C2766      C3773   1.408   1_545  A
C2766      C2767   1.412       .  A
C2767      C2768   1.407       .  A
C2767     Br2774   1.922       .  S
C2768      C2769   1.410       .  A
C2768     Br2773   1.932       .  S
C2769      C2770   1.423   1_545  A
C2770      C3773   1.412       .  A
C2770     Br3779   1.934       .  S
Br2771     C3778   1.934       .  S
C2775      C2776   1.404       .  A
C2775      C2780   1.403       .  A
C2775     Br2782   1.929       .  S
C2776      C2777   1.408       .  A
C2777      C2778   1.408       .  A
C2777     Br2784   1.932       .  S
C2778      C2779   1.421       .  A
C2778     Br2783   1.934       .  S
C2779      C2780   1.421       .  A
C2780     Br2781   1.938       .  S
C2785      C2786   1.413       .  A
C2785      C2790   1.412       .  A
C2785     Br2792   1.930       .  S
C2786      C2787   1.403       .  A
C2787      C2788   1.412       .  A
C2787     Br2794   1.930       .  S
C2788      C2789   1.432       .  A
C2789      C2790   1.420       .  A
C2790     Br2791   1.937       .  S
C2795      C2796   1.421       .  A
C2795      C2800   1.415       .  A
C2795     Br2802   1.933       .  S
C2796      C2797   1.425       .  A
C2797      C2798   1.416       .  A
C2798      C2799   1.410       .  A
C2798     Br2803   1.928       .  S
C2799      C2800   1.410       .  A
C2800     Br2801   1.927       .  S
C2805      C2806   1.424       .  A
C2805      C2810   1.408       .  A
C2805     Br2812   1.936       .  S
C2806      C2807   1.427       .  A
C2807      C2808   1.407       .  A
C2807     Br2814   1.937       .  S
C2808      C2809   1.400       .  A
C2808     Br2813   1.929       .  S
C2809      C2810   1.406       .  A
C2810     Br2811   1.932       .  S
C2815      C2816   1.420       .  A
C2815      C2820   1.405       .  A
C2815     Br2822   1.936       .  S
C2816      C2817   1.414       .  A
C2817      C2818   1.402       .  A
C2817     Br2824   1.939       .  S
C2818      C2819   1.410       .  A
C2818     Br2823   1.922       .  S
C2819      C2820   1.407       .  A
C2820     Br2821   1.928       .  S
C2825      C2826   1.407       .  A
C2825      C2830   1.405       .  A
C2825     Br2832   1.920       .  S
C2826      C2827   1.418       .  A
C2827      C2828   1.418       .  A
C2827     Br2834   1.928       .  S
C2828      C2829   1.415       .  A
C2828     Br2833   1.931       .  S
C2829      C2830   1.414       .  A
C2830     Br2831   1.929       .  S
C2835      C2836   1.420       .  A
C2835      C2840   1.405       .  A
C2835     Br2842   1.929       .  S
C2836      C2837   1.412       .  A
C2837      C2838   1.401       .  A
C2837     Br2844   1.925       .  S
C2838      C2839   1.405       .  A
C2838     Br2843   1.927       .  S
C2839      C2840   1.405       .  A
C2840     Br2841   1.933       .  S
C2845      C2846   1.413       .  A
C2845      C2850   1.416       .  A
C2845     Br2852   1.933       .  S
C2846      C2847   1.414       .  A
C2847      C2848   1.413       .  A
C2847     Br2854   1.927       .  S
C2848      C2849   1.415       .  A
C2848     Br2853   1.932       .  S
C2849      C2850   1.423       .  A
C2855      C2856   1.410       .  A
C2855      C2860   1.404       .  A
C2855     Br2862   1.928       .  S
C2856      C2857   1.416       .  A
C2857      C2858   1.407       .  A
C2857     Br2864   1.932       .  S
C2858      C2859   1.413       .  A
C2858     Br2863   1.935       .  S
C2859      C2860   1.417       .  A
C2860     Br2861   1.936       .  S
C2865      C2866   1.418       .  A
C2865      C2870   1.409       .  A
C2865     Br3880   1.933       .  S
C2866      C2867   1.418       .  A
C2867      C2868   1.411       .  A
C2867     Br2874   1.935       .  S
C2868      C2869   1.411       .  A
C2868     Br2873   1.928       .  S
C2869      C2870   1.408       .  A
C2870     Br3879   1.923       .  S
Br2871     C3878   1.923       .  S
Br2872     C3873   1.933       .  S
C2875      C2876   1.422       .  A
C2875      C2880   1.403       .  A
C2875     Br2882   1.933       .  S
C2876      C2877   1.419       .  A
C2877      C2878   1.405       .  A
C2877     Br2884   1.931       .  S
C2878      C2879   1.404       .  A
C2878     Br2883   1.928       .  S
C2879      C2880   1.403       .  A
C2880     Br2881   1.935       .  S
C2885      C2886   1.410       .  A
C2885      C2890   1.404       .  A
C2885     Br2892   1.927       .  S
C2886      C2887   1.416       .  A
C2887      C2888   1.402       .  A
C2887     Br2894   1.938       .  S
C2888      C2889   1.413       .  A
C2888     Br2893   1.938       .  S
C2889      C2890   1.413       .  A
C2890     Br2891   1.933       .  S
C2895      C2896   1.422       .  A
C2895      C2900   1.411       .  A
C2895     Br2902   1.937       .  S
C2896      C2897   1.416       .  A
C2897      C2898   1.416       .  A
C2897     Br2904   1.932       .  S
C2898      C2899   1.417       .  A
C2899      C2900   1.409       .  A
C2900     Br2901   1.929       .  S
C2905      C2906   1.413       .  A
C2905      C2910   1.404       .  A
C2905     Br2912   1.927       .  S
C2906      C2907   1.416       .  A
C2907      C2908   1.414       .  A
C2907     Br2914   1.924       .  S
C2908      C2909   1.410       .  A
C2908     Br2913   1.929       .  S
C2909      C2910   1.413       .  A
C2910     Br2911   1.937       .  S
C2915      C2916   1.415       .  A
C2915      C2920   1.415       .  A
C2915     Br2922   1.935       .  S
C2916      C2917   1.418       .  A
C2917      C2918   1.418       .  A
C2917     Br2924   1.925       .  S
C2918      C2919   1.412       .  A
C2919      C2920   1.420       .  A
C2920     Br2921   1.934   1_655  S
C2925      C2926   1.419       .  A
C2925      C2930   1.413       .  A
C2925     Br2932   1.933       .  S
C2926      C2927   1.419       .  A
C2927      C2928   1.415       .  A
C2928      C2929   1.417       .  A
C2928     Br2933   1.936   1_655  S
C2929      C2930   1.411       .  A
C2930     Br2931   1.926       .  S
C2935      C2936   1.418       .  A
C2935      C2940   1.412       .  A
C2935     Br2942   1.937       .  S
C2936      C2937   1.422       .  A
C2937      C2938   1.413       .  A
C2937     Br2944   1.936       .  S
C2938      C2939   1.410       .  A
C2938     Br2943   1.927       .  S
C2939      C2940   1.417       .  A
C2940     Br2941   1.936       .  S
C2945      C3954   1.431       .  A
C2945      C3958   1.414       .  A
C2945     Br2952   1.935       .  S
C2946      C3142   1.517   1_545  S
C2946      C3953   1.431   1_545  A
C2946      C2947   1.432       .  A
C2947      C2948   1.411       .  A
C2947     Br2954   1.939       .  S
C2948      C2949   1.404       .  A
C2948     Br2953   1.932       .  S
C2949      C2950   1.403       .  A
C2950      C3953   1.414   1_545  A
C2950     Br3959   1.933   1_545  S
Br2951     C3958   1.933       .  S
C2955      C2956   1.418       .  A
C2955      C2960   1.403       .  A
C2955     Br2962   1.935       .  S
C2956      C2957   1.427       .  A
C2957      C2958   1.405       .  A
C2957     Br2964   1.939       .  S
C2958      C2959   1.402       .  A
C2958     Br2963   1.933       .  S
C2959      C2960   1.404       .  A
C2960     Br2961   1.928       .  S
C2965      C2966   1.409       .  A
C2965      C2970   1.405       .  A
C2965     Br2972   1.924       .  S
C2966      C2967   1.407       .  A
C2967      C2968   1.406       .  A
C2967     Br2974   1.933       .  S
C2968      C2969   1.418       .  A
C2968     Br2973   1.933       .  S
C2969      C2970   1.411       .  A
C2970     Br2971   1.931       .  S
C2975      C2976   1.410       .  A
C2975      C2980   1.406       .  A
C2975     Br2982   1.925       .  S
C2976      C2977   1.416       .  A
C2977      C2978   1.410       .  A
C2977     Br2984   1.937       .  S
C2978      C2979   1.416       .  A
C2978     Br2983   1.935       .  S
C2979      C3132   1.489   1_545  S
C2979      C2980   1.415       .  A
C2980     Br3989   1.935       .  S
Br2981     C3988   1.935       .  S
C2985      C2986   1.411       .  A
C2985      C2990   1.405       .  A
C2985     Br2992   1.936       .  S
C2986      C2987   1.419       .  A
C2988     Br2993   1.927       .  S
C2989      C2990   1.419       .  A
C2990     Br2991   1.938       .  S
C2995      C2996   1.427       .  A
C2995      C3000   1.410       .  A
C2995     Br3002   1.937       .  S
C2996      C2997   1.428       .  A
C2997      C2998   1.411       .  A
C2997     Br3004   1.936       .  S
C2998      C2999   1.403       .  A
C2998     Br3003   1.930       .  S
C2999      C3000   1.405       .  A
C3000     Br3001   1.932       .  S
C3005      C3006   1.410       .  A
C3005      C3010   1.411       .  A
C3005     Br3012   1.934       .  S
C3006      C3007   1.405       .  A
C3008     Br3013   1.933       .  S
C3009      C3010   1.422       .  A
C3010     Br3011   1.935       .  S
C3015      C3016   1.421       .  A
C3015      C3020   1.412       .  A
C3015     Br3022   1.937       .  S
C3016      C3017   1.424       .  A
C3017      C3018   1.409       .  A
C3017     Br3024   1.937       .  S
C3018      C3019   1.406       .  A
C3018     Br3023   1.930       .  S
C3019      C3020   1.414       .  A
C3020     Br3021   1.937       .  S
O3025     Mg3027   2.137       .  S
O3025     Mg3033   2.156       .  S
O3025      C3060   1.232       .  S
C3026      O3039   1.233       .  S
C3026      O3063   1.266       .  A
C3026      H3065   1.081       .  S
Mg3027     O3056   2.186       .  S
Mg3027     O3071   2.265       .  S
Mg3027     O3067   2.247       .  S
Mg3027     O3038   2.291       .  S
O3028     Mg3070   2.180       .  S
O3028     Mg3053   2.147       .  S
O3028      C3049   1.236       .  S
O3029      C3060   1.267       .  A
O3029     Mg3053   2.294       .  S
C3030      O3032   1.269       .  A
C3030      O3044   1.276       .  A
C3030      C4004   1.509       .  S
O3031      C3059   1.269       .  A
O3031     Mg3033   2.295       .  S
O3032     Mg3064   2.257       .  S
Mg3033     O3039   2.150       .  S
Mg3033     O3035   2.317       .  S
C3034      O3072   1.272       .  A
C3034      O3040   1.269       .  A
C3034      C3586   1.453       .  S
O3035      C3042   1.276       .  A
H3036      C3049   1.082       .  S
C3037      O3051   1.233       .  S
C3037      O3052   1.268       .  A
C3037      H3062   1.081       .  S
O3038      C3061   1.267       .  A
O3039     Mg3053   2.158       .  S
O3040     Mg3070   2.275       .  S
C3041      O3054   1.270       .  A
C3041      O3046   1.272       .  A
C3041      C4024   1.501       .  S
C3042      O3069   1.272       .  A
Mg3043     O3050   2.147       .  S
Mg3043     O3051   2.152       .  S
Mg3043     O3044   2.337       .  S
Mg3043     O3045   2.304       .  S
Mg3043     O3072   2.263       .  S
O3045      C3049   1.270       .  A
O3046     Mg3053   2.293       .  S
O3047      C3066   1.273       .  A
O3048      C3068   1.271       .  A
O3048     Mg3064   2.269       .  S
O3050     Mg3064   2.149       .  S
O3050      C3061   1.234       .  S
O3051     Mg3070   2.155       .  S
O3052     Mg3064   2.305       .  S
Mg3053     O3069   2.247       .  S
O3054     Mg3070   2.266       .  S
H3055      C3060   1.081       .  S
O3056     Mg3064   2.144       .  S
O3056      C3059   1.235       .  S
H3057      C3059   1.081       .  S
H3058      C3061   1.081       .  S
O3063     Mg3070   2.286       .  S
C3066      C3618   1.456       .  S
O3067      C3068   1.267       .  A
C3068      C3994   1.485       .  S
C3073      C4027   1.494       .  S
C3073      C3074   1.428       .  A
C3073      C3078   1.404       .  A
C3074      C3984   1.492       .  S
C3074      C3075   1.405       .  A
C3075      H3080   1.084       .  S
C3075      C3076   1.396       .  A
C3076      C3974   1.488       .  S
C3076      C3077   1.413       .  A
C3077      C3967   1.481       .  S
C3077      C3078   1.397       .  A
C3078      H3079   1.084       .  S
C3081      C4014   1.489       .  S
C3081      C3082   1.415       .  A
C3081      C3086   1.400       .  A
C3082      C3957   1.497       .  S
C3082      C3083   1.403       .  A
C3083      H3088   1.084       .  S
C3083      C3084   1.413       .  A
C3084      C3947   1.502       .  S
C3084      C3085   1.432       .  A
C3085      C3937   1.503       .  S
C3085      C3086   1.406       .  A
C3086      H3087   1.084       .  S
O3089     Mg3091   2.139       .  S
O3089     Mg3097   2.135       .  S
O3089      C3124   1.237       .  S
C3090      O3103   1.233       .  S
C3090      O3127   1.268       .  A
C3090      H3129   1.081       .  S
Mg3091     O3120   2.166       .  S
Mg3091     O3131   2.249   1_565  S
Mg3091     O3102   2.311       .  S
O3092     Mg3134   2.167       .  S
O3092     Mg3117   2.165       .  S
O3092      C3113   1.236       .  S
O3093      C3124   1.274       .  A
O3093     Mg3117   2.317       .  S
C3094      O3096   1.277       .  A
C3094      O3108   1.274       .  A
O3095      C3123   1.275       .  A
O3095     Mg3097   2.322       .  S
O3096     Mg3128   2.329       .  S
Mg3097     O3103   2.136       .  S
Mg3097     O3099   2.292       .  S
C3098      O3136   1.270       .  A
C3098      C3620   1.464       .  S
O3099      C3106   1.268       .  A
H3100      C3113   1.081       .  S
C3101      O3115   1.236       .  S
C3101      O3116   1.272       .  A
C3101      H3126   1.081       .  S
O3102      C3125   1.270       .  A
O3103     Mg3117   2.131       .  S
O3104     Mg3134   2.293       .  S
C3105      O3118   1.277       .  A
C3105      O3110   1.274       .  A
C3105      C3904   1.502       .  S
C3106      O3133   1.272       .  A
C3106      C3917   1.484       .  S
Mg3107     O3114   2.161       .  S
Mg3107     O3115   2.169       .  S
Mg3107     O3108   2.315       .  S
Mg3107     O3109   2.303       .  S
O3109      C3113   1.271       .  A
O3110     Mg3117   2.305       .  S
O3111      C3130   1.263       .  A
O3112      C3132   1.277       .  A
O3112     Mg3128   2.324       .  S
O3114     Mg3128   2.142       .  S
O3114      C3125   1.234       .  S
O3115     Mg3134   2.175       .  S
O3116     Mg3128   2.315       .  S
Mg3117     O3133   2.295       .  S
O3118     Mg3134   2.314       .  S
H3119      C3124   1.081       .  S
O3120     Mg3128   2.195       .  S
O3120      C3123   1.239       .  S
H3121      C3123   1.081       .  S
H3122      C3125   1.082       .  S
O3127     Mg3134   2.299       .  S
C3130      O3135   1.276       .  A
C3130      C3593   1.467       .  S
O3131      C3132   1.269   1_545  A
O3137     Mg3139   2.123       .  S
O3137     Mg3145   2.128       .  S
O3137      C3172   1.236       .  S
C3138      O3151   1.235       .  S
C3138      O3175   1.271       .  A
C3138      H3177   1.081       .  S
Mg3139     O3168   2.182       .  S
Mg3139     O3183   2.322       .  S
Mg3139     O3179   2.259       .  S
Mg3139     O3150   2.297       .  S
O3140     Mg3182   2.176       .  S
O3140     Mg3165   2.156       .  S
O3140      C3161   1.235       .  S
O3141      C3172   1.271       .  A
O3141     Mg3165   2.309       .  S
C3142      O3144   1.269       .  A
C3142      O3156   1.272       .  A
O3143      C3171   1.271       .  A
O3143     Mg3145   2.304       .  S
O3144     Mg3176   2.275       .  S
Mg3145     O3151   2.178       .  S
Mg3145     O3159   2.313       .  S
Mg3145     O3147   2.297       .  S
C3146      O3184   1.273       .  A
C3146      C3594   1.471       .  S
O3147      C3154   1.270       .  A
H3148      C3161   1.080       .  S
C3149      O3163   1.234       .  S
C3149      O3164   1.267       .  A
C3149      H3174   1.081   1_565  S
O3150      C3173   1.269       .  A
O3151     Mg3165   2.148       .  S
O3152     Mg3182   2.324   1_545  S
C3153      O3166   1.273       .  A
C3153      O3158   1.272       .  A
C3153      C3874   1.495       .  S
C3154      O3181   1.269       .  A
C3154      C3884   1.487       .  S
Mg3155     O3162   2.152       .  S
Mg3155     O3163   2.160       .  S
Mg3155     O3156   2.309       .  S
Mg3155     O3157   2.300       .  S
O3157      C3161   1.269       .  A
O3158     Mg3165   2.284       .  S
O3159      C3178   1.273       .  A
O3160      C3180   1.267       .  A
O3160     Mg3176   2.237       .  S
O3162     Mg3176   2.162       .  S
O3162      C3173   1.235       .  S
O3163     Mg3182   2.136       .  S
O3164     Mg3176   2.289       .  S
Mg3165     O3181   2.264       .  S
O3166     Mg3182   2.288       .  S
H3167      C3172   1.081       .  S
O3168     Mg3176   2.157       .  S
O3168      C3171   1.237       .  S
H3169      C3171   1.080       .  S
H3170      C3173   1.080       .  S
O3175     Mg3182   2.309       .  S
C3178      O3183   1.276       .  A
C3178      C3582   1.479       .  S
O3179      C3180   1.269       .  A
C3180      C3897   1.475       .  S
C3185      C3924   1.513       .  S
C3185      C3186   1.423       .  A
C3185      C3190   1.418       .  A
C3186      C3894   1.484       .  S
C3186      C3187   1.395       .  A
C3187      H3192   1.084       .  S
C3187      C3188   1.392       .  A
C3188      C3864   1.490       .  S
C3188      C3189   1.422       .  A
C3189      C3854   1.506       .  S
C3189      C3190   1.418       .  A
C3190      H3191   1.083       .  S
O3193     Mg3195   2.156   1_554  S
O3193      C3228   1.237       .  S
C3194      O3207   1.234   1_565  S
C3194      O3231   1.269       .  A
C3194      H3233   1.081       .  S
Mg3195     O3206   2.323       .  S
O3196     Mg3221   2.142       .  S
O3196      C3217   1.236       .  S
O3197      C3228   1.274       .  A
O3197     Mg3221   2.323       .  S
C3198      O3200   1.269       .  A
C3198      O3212   1.268       .  A
C3198      C3844   1.483       .  S
O3199      C3227   1.274       .  A
O3199     Mg3201   2.322   1_565  S
O3200     Mg3232   2.269       .  S
Mg3201     O3207   2.179       .  S
Mg3201     O3215   2.307       .  S
C3202      O3240   1.270       .  A
C3202      O3208   1.276   1_556  A
O3203      C3210   1.271       .  A
H3204      C3217   1.082       .  S
C3205      O3219   1.237       .  S
C3205      O3220   1.273       .  A
C3205      H3230   1.080   1_556  S
O3206      C3229   1.273       .  A
C3209      O3222   1.270       .  A
C3209      O3214   1.275       .  A
C3209      C3944   1.501       .  S
C3210      O3237   1.268       .  A
C3210      C3977   1.480       .  S
Mg3211     O3218   2.181       .  S
Mg3211     O3213   2.304       .  S
Mg3211     O3240   2.299       .  S
O3213      C3217   1.271   1_556  A
O3214     Mg3221   2.311       .  S
O3215      C3234   1.271   1_545  A
O3216      C3236   1.274       .  A
O3216     Mg3232   2.312       .  S
O3218      C3229   1.236       .  S
O3219     Mg3238   2.131   1_556  S
O3220     Mg3232   2.314       .  S
Mg3221     O3237   2.254       .  S
H3223      C3228   1.081   1_556  S
O3224     Mg3232   2.161       .  S
O3224      C3227   1.237   1_556  S
H3225      C3227   1.081   1_556  S
H3226      C3229   1.081       .  S
O3231     Mg3238   2.302       .  S
C3234      O3239   1.276       .  A
C3234      C3546   1.477       .  S
O3235      C3236   1.272       .  A
C3236      C3837   1.498       .  S
O3241     Mg3243   2.130   1_556  S
O3241     Mg3249   2.140       .  S
O3241      C3276   1.232       .  S
C3242      O3255   1.237       .  S
C3242      O3279   1.271       .  A
C3242      H3281   1.081       .  S
Mg3243     O3272   2.155       .  S
Mg3243     O3287   2.292       .  S
Mg3243     O3283   2.247       .  S
Mg3243     O3254   2.295       .  S
O3244     Mg3286   2.166       .  S
O3244     Mg3269   2.131       .  S
O3244      C3265   1.233       .  S
O3245      C3276   1.266       .  A
O3245     Mg3269   2.292       .  S
C3246      O3248   1.263       .  A
C3246      O3260   1.276       .  A
C3246      C3964   1.496       .  S
O3247      C3275   1.267   1_556  A
O3247     Mg3249   2.295       .  S
O3248     Mg3280   2.208       .  S
Mg3249     O3255   2.163       .  S
Mg3249     O3263   2.282       .  S
Mg3249     O3251   2.339       .  S
C3250      O3288   1.276       .  A
C3250      O3256   1.270   1_554  A
C3250      C3545   1.464   1_554  S
O3251      C3258   1.277       .  A
H3252      C3265   1.081       .  S
C3253      O3267   1.233       .  S
C3253      O3268   1.266       .  A
C3253      H3278   1.081   1_554  S
O3254      C3277   1.271       .  A
O3255     Mg3269   2.155       .  S
O3256     Mg3286   2.296       .  S
C3257      O3270   1.263       .  A
C3257      O3262   1.266       .  A
C3257      C3824   1.484       .  S
C3258      O3285   1.265       .  A
C3258      C3814   1.500       .  S
Mg3259     O3266   2.151       .  S
Mg3259     O3267   2.140       .  S
Mg3259     O3260   2.315       .  S
Mg3259     O3261   2.302       .  S
Mg3259     O3288   2.285       .  S
O3261      C3265   1.268   1_554  A
O3262     Mg3269   2.245       .  S
O3263      C3282   1.277       .  A
O3264      C3284   1.269       .  A
O3264     Mg3280   2.264       .  S
O3266     Mg3280   2.169       .  S
O3266      C3277   1.237       .  S
O3267     Mg3286   2.122   1_554  S
O3268     Mg3280   2.284       .  S
Mg3269     O3285   2.219       .  S
O3270     Mg3286   2.234       .  S
H3271      C3276   1.081   1_554  S
O3272     Mg3280   2.118       .  S
O3272      C3275   1.233       .  S
H3273      C3275   1.082       .  S
H3274      C3277   1.081       .  S
O3279     Mg3286   2.303       .  S
C3282      O3287   1.271   1_556  A
C3282      C3572   1.460   1_556  S
O3283      C3284   1.267       .  A
C3284      C3867   1.484       .  S
O3289     Mg3291   2.177   1_556  S
O3289      C3324   1.233       .  S
C3290      O3303   1.234       .  S
C3290      O3327   1.267       .  A
C3290      H3329   1.081       .  S
Mg3291     O3302   2.306       .  S
O3292     Mg3317   2.159       .  S
O3292      C3313   1.236       .  S
O3293      C3324   1.270       .  A
O3293     Mg3317   2.316       .  S
C3294      O3296   1.277       .  A
C3294      O3308   1.277       .  A
C3294      C3857   1.504       .  S
O3295      C3323   1.275   1_556  A
O3295     Mg3297   2.327   1_655  S
O3296     Mg3328   2.302       .  S
Mg3297     O3303   2.157   1_455  S
Mg3297     O3311   2.286       .  S
C3298      O3336   1.273       .  A
C3298      O3304   1.267   1_554  A
C3298      C3570   1.464   1_554  S
O3299      C3306   1.280       .  A
H3300      C3313   1.083       .  S
C3301      O3315   1.234       .  S
C3301      O3316   1.270       .  A
C3301      H3326   1.080   1_554  S
O3302      C3325   1.271       .  A
C3305      O3318   1.265       .  A
C3305      O3310   1.277       .  A
C3305      C3797   1.508       .  S
C3306      O3333   1.276       .  A
C3306      C3804   1.511       .  S
Mg3307     O3314   2.164       .  S
Mg3307     O3309   2.307       .  S
Mg3307     O3336   2.286       .  S
O3309      C3313   1.272   1_554  A
O3310     Mg3317   2.326       .  S
O3311      C3330   1.272       .  A
O3312      C3332   1.279       .  A
O3312     Mg3328   2.347       .  S
O3314      C3325   1.235       .  S
O3315     Mg3334   2.159   1_554  S
O3316     Mg3328   2.309       .  S
Mg3317     O3333   2.294       .  S
H3319      C3324   1.081   1_554  S
O3320     Mg3328   2.178       .  S
O3320      C3323   1.238       .  S
H3321      C3323   1.081       .  S
H3322      C3325   1.081       .  S
O3327     Mg3334   2.289       .  S
C3330      O3335   1.267   1_456  A
O3331      C3332   1.268       .  A
C3332      C3934   1.503       .  S
O3337     Mg3339   2.150       .  S
O3337     Mg3345   2.187       .  S
O3337      C3372   1.235       .  S
C3338      O3351   1.234       .  S
C3338      O3375   1.270       .  A
C3338      H3377   1.081       .  S
Mg3339     O3368   2.162       .  S
Mg3339     O3383   2.281       .  S
Mg3339     O3379   2.261       .  S
Mg3339     O3350   2.290       .  S
O3340     Mg3382   2.146       .  S
O3340     Mg3365   2.146       .  S
O3340      C3361   1.233       .  S
O3341      C3372   1.268       .  A
O3341     Mg3365   2.287       .  S
C3342      O3344   1.271       .  A
C3342      O3356   1.271       .  A
C3342      C3787   1.496       .  S
O3343      C3371   1.263       .  A
O3343     Mg3345   2.278       .  S
O3344     Mg3376   2.267       .  S
Mg3345     O3351   2.140       .  S
Mg3345     O3347   2.307       .  S
C3346      O3384   1.274       .  A
C3346      O3352   1.268       .  A
C3346      C3634   1.466       .  S
O3347      C3354   1.274       .  A
H3348      C3361   1.081       .  S
C3349      O3363   1.235       .  S
C3349      O3364   1.270       .  A
C3349      H3374   1.081       .  S
O3350      C3373   1.268       .  A
O3351     Mg3365   2.157       .  S
O3352     Mg3382   2.282       .  S
C3353      O3366   1.265       .  A
C3353      O3358   1.268       .  A
C3353      C3764   1.475       .  S
C3354      O3381   1.267       .  A
Mg3355     O3362   2.153       .  S
Mg3355     O3363   2.167       .  S
Mg3355     O3356   2.266       .  S
Mg3355     O3357   2.299       .  S
Mg3355     O3384   2.289       .  S
O3357      C3361   1.268       .  A
O3358     Mg3365   2.281       .  S
O3359      C3378   1.273       .  A
O3360      C3380   1.279       .  A
O3360     Mg3376   2.312       .  S
O3362     Mg3376   2.173       .  S
O3362      C3373   1.235       .  S
O3363     Mg3382   2.143       .  S
O3364     Mg3376   2.298       .  S
Mg3365     O3381   2.235       .  S
O3366     Mg3382   2.235       .  S
H3367      C3372   1.081       .  S
O3368     Mg3376   2.123       .  S
O3368      C3371   1.231       .  S
H3369      C3371   1.081       .  S
H3370      C3373   1.081       .  S
O3375     Mg3382   2.310       .  S
C3378      C3666   1.452       .  S
O3379      C3380   1.270       .  A
C3380      C3777   1.496       .  S
C3385      C3827   1.482       .  S
C3385      C3386   1.421       .  A
C3385      C3390   1.394       .  A
C3386      C3807   1.504       .  S
C3386      C3387   1.416       .  A
C3387      H3392   1.083       .  S
C3387      C3388   1.417       .  A
C3388      C3744   1.502       .  S
C3388      C3389   1.421       .  A
C3389      C3767   1.487       .  S
C3389      C3390   1.394       .  A
C3390      H3391   1.086       .  S
C3393      C3834   1.502       .  S
C3393      C3394   1.421       .  A
C3393      C3398   1.406       .  A
C3394      C3794   1.493       .  S
C3394      C3395   1.407       .  A
C3395      H3400   1.084       .  S
C3395      C3396   1.408       .  A
C3396      C3737   1.509       .  S
C3396      C3397   1.425       .  A
C3397      C3757   1.495       .  S
C3397      C3398   1.411       .  A
C3398      H3399   1.084       .  S
O3401     Mg3403   2.149       .  S
O3401     Mg3409   2.175       .  S
O3401      C3436   1.232       .  S
C3402      O3415   1.234       .  S
C3402      O3439   1.268       .  A
C3402      H3441   1.081       .  S
Mg3403     O3432   2.191       .  S
Mg3403     O3447   2.273   1_655  S
Mg3403     O3443   2.244       .  S
Mg3403     O3414   2.280       .  S
O3404     Mg3446   2.163       .  S
O3404     Mg3429   2.169       .  S
O3404      C3425   1.237       .  S
O3405      C3436   1.266       .  A
O3405     Mg3429   2.287       .  S
C3406      O3408   1.274       .  A
C3406      O3420   1.277       .  A
C3406      C3714   1.496       .  S
O3407      C3435   1.266       .  A
O3407     Mg3409   2.287       .  S
O3408     Mg3440   2.277       .  S
Mg3409     O3415   2.146       .  S
Mg3409     O3411   2.315       .  S
C3410      O3448   1.270       .  A
C3410      O3416   1.268       .  A
C3410      C3668   1.455       .  S
O3411      C3418   1.277       .  A
H3412      C3425   1.081       .  S
C3413      O3427   1.233       .  S
C3413      O3428   1.269       .  A
C3413      H3438   1.080       .  S
O3414      C3437   1.266       .  A
O3415     Mg3429   2.174       .  S
C3417      O3430   1.267       .  A
C3417      O3422   1.273       .  A
C3418      O3445   1.272       .  A
Mg3419     O3426   2.135       .  S
Mg3419     O3427   2.147       .  S
Mg3419     O3420   2.331       .  S
Mg3419     O3421   2.311       .  S
O3421      C3425   1.272       .  A
O3422     Mg3429   2.304       .  S
O3423      C3442   1.276       .  A
O3424      C3444   1.273       .  A
O3424     Mg3440   2.287       .  S
O3426     Mg3440   2.151       .  S
O3426      C3437   1.233       .  S
O3427     Mg3446   2.151       .  S
O3428     Mg3440   2.307       .  S
Mg3429     O3445   2.274       .  S
O3430     Mg3446   2.231       .  S
H3431      C3436   1.080       .  S
O3432     Mg3440   2.148       .  S
O3432      C3435   1.233       .  S
H3433      C3435   1.081       .  S
H3434      C3437   1.081       .  S
O3439     Mg3446   2.296       .  S
C3442      C3641   1.461       .  S
O3443      C3444   1.268       .  A
C3444      C3724   1.491       .  S
O3449     Mg3451   2.129       .  S
O3449     Mg3457   2.141       .  S
O3449      C3484   1.237       .  S
C3450      O3463   1.235       .  S
C3450      O3487   1.273       .  A
C3450      H3489   1.081       .  S
Mg3451     O3480   2.187       .  S
Mg3451     O3495   2.314       .  S
Mg3451     O3491   2.255       .  S
Mg3451     O3462   2.294       .  S
O3452     Mg3494   2.150       .  S
O3452     Mg3477   2.169       .  S
O3452      C3473   1.237       .  S
O3453      C3484   1.273       .  A
O3453     Mg3477   2.317       .  S
C3454      O3456   1.272       .  A
C3454      O3468   1.275       .  A
O3455      C3483   1.270       .  A
O3455     Mg3457   2.300       .  S
O3456     Mg3488   2.288       .  S
Mg3457     O3463   2.168       .  S
Mg3457     O3471   2.277       .  S
Mg3457     O3459   2.266       .  S
C3458      O3496   1.272       .  A
C3458      C3642   1.472       .  S
O3459      C3466   1.264       .  A
H3460      C3473   1.081       .  S
C3461      O3475   1.238       .  S
C3461      O3476   1.275       .  A
C3461      H3486   1.081   1_655  S
O3462      C3485   1.267       .  A
O3463     Mg3477   2.134       .  S
O3464     Mg3494   2.322   1_455  S
C3465      O3478   1.275       .  A
C3465      O3470   1.271       .  A
C3465      C3697   1.493       .  S
C3466      O3493   1.268       .  A
C3466      C3684   1.480       .  S
Mg3467     O3474   2.160       .  S
Mg3467     O3475   2.148       .  S
Mg3467     O3468   2.315       .  S
Mg3467     O3469   2.318       .  S
O3469      C3473   1.274       .  A
O3470     Mg3477   2.293       .  S
O3471      C3490   1.266       .  A
O3472      C3492   1.278       .  A
O3472     Mg3488   2.317       .  S
O3474     Mg3488   2.146       .  S
O3474      C3485   1.232       .  S
O3475     Mg3494   2.169       .  S
O3476     Mg3488   2.324       .  S
Mg3477     O3493   2.289       .  S
O3478     Mg3494   2.320       .  S
H3479      C3484   1.081       .  S
O3480     Mg3488   2.159       .  S
O3480      C3483   1.236       .  S
H3481      C3483   1.081       .  S
H3482      C3485   1.081       .  S
O3487     Mg3494   2.323       .  S
C3490      O3495   1.275       .  A
C3490      C3630   1.469       .  S
O3491      C3492   1.271       .  A
C3492      C3674   1.484       .  S
C3497      C3817   1.486       .  S
C3497      C3498   1.409       .  A
C3497      C3502   1.400       .  A
C3498      C3847   1.479       .  S
C3498      C3499   1.390       .  A
C3499      H3504   1.084       .  S
C3499      C3500   1.400       .  A
C3500      C3704   1.493       .  S
C3500      C3501   1.432       .  A
C3501      C3677   1.499       .  S
C3501      C3502   1.411       .  A
C3502      H3503   1.084       .  S
C3505      C3907   1.502       .  S
C3505      C3506   1.425       .  A
C3505      C3510   1.412       .  A
C3506      C3997   1.491       .  S
C3506      C3507   1.395       .  A
C3507      H3512   1.086       .  S
C3508      C3727   1.491       .  S
C3508      C3509   1.425       .  A
C3509      C3694   1.504       .  S
C3510      H3511   1.084       .  S
C3513      C3887   1.477       .  S
C3513      C3514   1.416       .  A
C3513      C3518   1.396       .  A
C3514      C4007   1.492       .  S
C3514      C3515   1.404       .  A
C3515      H3520   1.084       .  S
C3515      C3516   1.407       .  A
C3516      C3784   1.486       .  S
C3516      C3517   1.420       .  A
C3517      C3687   1.488       .  S
C3517      C3518   1.396       .  A
C3518      H3519   1.085       .  S
C3521      C3914   1.497       .  S
C3521      C3522   1.423       .  A
C3521      C3526   1.408       .  A
C3522      C3877   1.499       .  S
C3522      C3523   1.409   1_565  A
C3523      H3528   1.084       .  S
C3524      C3717   1.497       .  S
C3524      C3525   1.421       .  A
C3525      C3774   1.495       .  S
C3526      H3527   1.084       .  S
O3529     Mg3537   2.174   1_554  S
O3529      C3564   1.232       .  S
C3530      O3543   1.233       .  S
C3530      O3567   1.267       .  A
C3530      H3569   1.080       .  S
Mg3531     O3560   2.194   1_554  S
Mg3531     O3575   2.307       .  S
Mg3531     O3571   2.282       .  S
Mg3531     O3542   2.294       .  S
O3532     Mg3574   2.196   1_554  S
O3532     Mg3557   2.175       .  S
O3532      C3553   1.233       .  S
O3533     Mg3557   2.292       .  S
C3534      O3536   1.274   1_545  A
O3535     Mg3537   2.300       .  S
O3536     Mg3568   2.291       .  S
Mg3537     O3551   2.263       .  S
Mg3537     O3539   2.299   1_556  S
C3538      O3544   1.275   1_554  A
O3539      C3546   1.273       .  A
H3540      C3553   1.080       .  S
C3541      O3555   1.232       .  S
C3541      H3566   1.080       .  S
O3542      C3565   1.267       .  A
O3543     Mg3557   2.178   1_556  S
O3544     Mg3574   2.302       .  S
C3545      O3558   1.274       .  A
C3545      O3550   1.271   1_556  A
Mg3547     O3555   2.179   1_554  S
Mg3547     O3548   2.300   1_554  S
Mg3547     O3549   2.296       .  S
Mg3547     O3576   2.260       .  S
O3550     Mg3557   2.272       .  S
O3551      C3570   1.270       .  A
O3552      C3572   1.269   1_556  A
O3552     Mg3568   2.264       .  S
O3554     Mg3568   2.175   1_554  S
O3554      C3565   1.233       .  S
O3556     Mg3568   2.292   1_545  S
Mg3557     O3573   2.303       .  S
O3558     Mg3574   2.287       .  S
H3559      C3564   1.080       .  S
O3560     Mg3568   2.174       .  S
O3560      C3563   1.234       .  S
H3561      C3563   1.080       .  S
H3562      C3565   1.082       .  S
O3567     Mg3574   2.291       .  S
O3571      C3572   1.274       .  A
O3577     Mg3579   2.167       .  S
O3577     Mg3585   2.173       .  S
O3577      C3612   1.234       .  S
C3578      O3591   1.233       .  S
C3578      O3615   1.268       .  A
C3578      H3617   1.082       .  S
Mg3579     O3608   2.189       .  S
Mg3579     O3623   2.272       .  S
Mg3579     O3619   2.275       .  S
Mg3579     O3590   2.293       .  S
O3580     Mg3622   2.173       .  S
O3580     Mg3605   2.163       .  S
O3580      C3601   1.236       .  S
O3581      C3612   1.269       .  A
O3581     Mg3605   2.303       .  S
C3582      O3584   1.275       .  A
C3582      O3596   1.277       .  A
O3583      C3611   1.269       .  A
O3583     Mg3585   2.294       .  S
O3584     Mg3616   2.306       .  S
Mg3585     O3591   2.149       .  S
Mg3585     O3599   2.265       .  S
Mg3585     O3587   2.311       .  S
C3586      O3624   1.269       .  A
C3586      O3592   1.267       .  A
O3587      C3594   1.276       .  A
H3588      C3601   1.080       .  S
C3589      O3603   1.235       .  S
C3589      O3604   1.272       .  A
C3589      H3614   1.080       .  S
O3590      C3613   1.267       .  A
O3591     Mg3605   2.160       .  S
O3592     Mg3622   2.268       .  S
C3593      O3606   1.270       .  A
C3593      O3598   1.273       .  A
C3594      O3621   1.272       .  A
Mg3595     O3602   2.146       .  S
Mg3595     O3603   2.160       .  S
Mg3595     O3596   2.328       .  S
Mg3595     O3597   2.310       .  S
Mg3595     O3624   2.259       .  S
O3597      C3601   1.272       .  A
O3598     Mg3605   2.296       .  S
O3599      C3618   1.271       .  A
O3600      C3620   1.276       .  A
O3600     Mg3616   2.300       .  S
O3602     Mg3616   2.148       .  S
O3602      C3613   1.233       .  S
O3603     Mg3622   2.179       .  S
O3604     Mg3616   2.316       .  S
Mg3605     O3621   2.287       .  S
O3606     Mg3622   2.281       .  S
H3607      C3612   1.080       .  S
O3608     Mg3616   2.156       .  S
O3608      C3611   1.235       .  S
H3609      C3611   1.081       .  S
H3610      C3613   1.081       .  S
O3615     Mg3622   2.300       .  S
C3618      O3623   1.268       .  A
O3619      C3620   1.270       .  A
O3625     Mg3627   2.143       .  S
O3625     Mg3633   2.161       .  S
O3625      C3660   1.232       .  S
C3626      O3639   1.233       .  S
C3626      O3663   1.266       .  A
C3626      H3665   1.080       .  S
Mg3627     O3656   2.183       .  S
Mg3627     O3671   2.273       .  S
Mg3627     O3667   2.247       .  S
Mg3627     O3638   2.294       .  S
O3628     Mg3670   2.189       .  S
O3628     Mg3653   2.182       .  S
O3628      C3649   1.235       .  S
O3629      C3660   1.267       .  A
O3629     Mg3653   2.295       .  S
C3630      O3632   1.267       .  A
C3630      O3644   1.279       .  A
O3631      C3659   1.270       .  A
O3631     Mg3633   2.298       .  S
O3632     Mg3664   2.249       .  S
Mg3633     O3639   2.136       .  S
Mg3633     O3647   2.247       .  S
Mg3633     O3635   2.312       .  S
C3634      O3672   1.274       .  A
C3634      O3640   1.273       .  A
O3635      C3642   1.275       .  A
H3636      C3649   1.080       .  S
C3637      O3651   1.234       .  S
C3637      O3652   1.270       .  A
C3637      H3662   1.080       .  S
O3638      C3661   1.267       .  A
O3639     Mg3653   2.156       .  S
O3640     Mg3670   2.304       .  S
C3641      O3654   1.275       .  A
C3641      O3646   1.267       .  A
C3642      O3669   1.273       .  A
Mg3643     O3650   2.153       .  S
Mg3643     O3651   2.165       .  S
Mg3643     O3644   2.335       .  S
Mg3643     O3645   2.310       .  S
Mg3643     O3672   2.277       .  S
O3645      C3649   1.271       .  A
O3646     Mg3653   2.263       .  S
O3647      C3666   1.269       .  A
O3648      C3668   1.268       .  A
O3648     Mg3664   2.280       .  S
O3650     Mg3664   2.168       .  S
O3650      C3661   1.233       .  S
O3651     Mg3670   2.184       .  S
O3652     Mg3664   2.310       .  S
Mg3653     O3669   2.293       .  S
O3654     Mg3670   2.285       .  S
H3655      C3660   1.080       .  S
O3656     Mg3664   2.153       .  S
O3656      C3659   1.236       .  S
H3657      C3659   1.080       .  S
H3658      C3661   1.082       .  S
O3663     Mg3670   2.287       .  S
C3666      O3671   1.268       .  A
O3667      C3668   1.268       .  A
C3673      C3674   1.409       .  A
C3673      C3678   1.408       .  A
C3673     Br3680   1.935       .  S
C3674      C3675   1.415       .  A
C3675      C3676   1.410       .  A
C3675     Br3682   1.934       .  S
C3676      C3677   1.413       .  A
C3676     Br3681   1.928       .  S
C3677      C3678   1.421       .  A
C3678     Br3679   1.935       .  S
C3683      C3684   1.416       .  A
C3683      C3688   1.405       .  A
C3683     Br3690   1.930       .  S
C3684      C3685   1.409       .  A
C3685      C3686   1.407       .  A
C3685     Br3692   1.928       .  S
C3686      C3687   1.411       .  A
C3686     Br3691   1.924       .  S
C3687      C3688   1.409       .  A
C3688     Br3689   1.936       .  S
C3693     Br3700   1.933       .  S
C3694      C3695   1.409       .  A
C3695      C3696   1.405       .  A
C3695     Br3702   1.926       .  S
C3696      C3697   1.414       .  A
C3696     Br3701   1.933       .  S
C3697      C3698   1.411   1_655  A
C3703      C3704   1.421       .  A
C3703      C3708   1.406       .  A
C3703     Br3710   1.938       .  S
C3704      C3705   1.411       .  A
C3705      C3706   1.406       .  A
C3705     Br3712   1.927       .  S
C3706      C3707   1.414       .  A
C3707      C3708   1.408       .  A
C3708     Br3709   1.934   1_565  S
C3713      C3714   1.419       .  A
C3713      C3718   1.411       .  A
C3713     Br3720   1.937       .  S
C3714      C3715   1.415       .  A
C3715      C3716   1.413       .  A
C3715     Br3722   1.932       .  S
C3716      C3717   1.411       .  A
C3716     Br3721   1.924       .  S
C3717      C3718   1.411       .  A
C3723      C3724   1.416       .  A
C3723      C3728   1.408       .  A
C3723     Br3730   1.937       .  S
C3724      C3725   1.423       .  A
C3725      C3726   1.406   1_655  A
C3726      C3727   1.407   1_455  A
C3727      C3728   1.418       .  A
C3728     Br3729   1.939       .  S
C3733      C3734   1.411       .  A
C3733      C3738   1.416       .  A
C3734      C3735   1.411       .  A
C3735      C3736   1.406       .  A
C3735     Br3742   1.939       .  S
C3736      C3737   1.417       .  A
C3736     Br3741   1.926       .  S
C3737      C3738   1.418       .  A
C3738     Br3739   1.927       .  S
C3743      C3744   1.406       .  A
C3743      C3748   1.411       .  A
C3743     Br3750   1.925       .  S
C3744      C3745   1.410       .  A
C3745      C3746   1.415       .  A
C3745     Br3752   1.935       .  S
C3746      C3747   1.430       .  A
C3747      C3748   1.424       .  A
C3748     Br3749   1.936       .  S
C3753      C3754   1.415       .  A
C3753      C3758   1.408       .  A
C3753     Br3760   1.932       .  S
C3755     Br3762   1.938       .  S
C3756      C3757   1.411       .  A
C3757      C3758   1.410       .  A
C3758     Br3759   1.927       .  S
C3763      C3764   1.408       .  A
C3763      C3768   1.404       .  A
C3763     Br3770   1.935       .  S
C3764      C3765   1.414       .  A
C3765      C3766   1.403       .  A
C3765     Br3772   1.933       .  S
C3766      C3767   1.408       .  A
C3766     Br3771   1.925       .  S
C3767      C3768   1.416       .  A
C3768     Br3769   1.927       .  S
C3773     Br3780   1.926       .  S
C3774      C3775   1.412       .  A
C3775      C3776   1.407       .  A
C3775     Br3782   1.922       .  S
C3776      C3777   1.410       .  A
C3776     Br3781   1.932       .  S
C3777      C3778   1.422       .  A
C3783      C3784   1.404       .  A
C3783      C3788   1.403       .  A
C3783     Br3790   1.928       .  S
C3784      C3785   1.408       .  A
C3785      C3786   1.408       .  A
C3785     Br3792   1.932       .  S
C3786      C3787   1.422       .  A
C3786     Br3791   1.934       .  S
C3787      C3788   1.421       .  A
C3788     Br3789   1.938       .  S
C3793      C3794   1.412       .  A
C3793      C3798   1.412       .  A
C3793     Br3800   1.930       .  S
C3794      C3795   1.402       .  A
C3795      C3796   1.412       .  A
C3795     Br3802   1.931       .  S
C3796      C3797   1.432       .  A
C3797      C3798   1.420       .  A
C3798     Br3799   1.937       .  S
C3803      C3804   1.421       .  A
C3803      C3808   1.416       .  A
C3803     Br3810   1.933       .  S
C3804      C3805   1.425       .  A
C3805      C3806   1.416       .  A
C3806      C3807   1.409       .  A
C3806     Br3811   1.928       .  S
C3807      C3808   1.410       .  A
C3808     Br3809   1.927       .  S
C3813      C3814   1.424       .  A
C3813      C3818   1.408       .  A
C3813     Br3820   1.936       .  S
C3814      C3815   1.427       .  A
C3815      C3816   1.407       .  A
C3815     Br3822   1.937       .  S
C3816      C3817   1.400       .  A
C3816     Br3821   1.929       .  S
C3817      C3818   1.406       .  A
C3818     Br3819   1.932       .  S
C3823      C3824   1.420       .  A
C3823      C3828   1.405       .  A
C3823     Br3830   1.936       .  S
C3824      C3825   1.414       .  A
C3825      C3826   1.402       .  A
C3825     Br3832   1.939       .  S
C3826      C3827   1.410       .  A
C3826     Br3831   1.921       .  S
C3827      C3828   1.407       .  A
C3828     Br3829   1.928       .  S
C3833      C3834   1.407       .  A
C3833      C3838   1.405       .  A
C3833     Br3840   1.919       .  S
C3834      C3835   1.418       .  A
C3835      C3836   1.418       .  A
C3835     Br3842   1.928       .  S
C3836      C3837   1.415       .  A
C3836     Br3841   1.931   1_565  S
C3837      C3838   1.414       .  A
C3838     Br3839   1.929       .  S
C3843      C3844   1.420       .  A
C3843      C3848   1.405       .  A
C3843     Br3850   1.929       .  S
C3844      C3845   1.412       .  A
C3845      C3846   1.401       .  A
C3845     Br3852   1.925       .  S
C3846      C3847   1.405       .  A
C3846     Br3851   1.927       .  S
C3847      C3848   1.405       .  A
C3848     Br3849   1.933       .  S
C3853      C3854   1.413       .  A
C3853      C3858   1.416       .  A
C3853     Br3860   1.933       .  S
C3854      C3855   1.414       .  A
C3855      C3856   1.413       .  A
C3855     Br3862   1.927       .  S
C3856      C3857   1.414       .  A
C3856     Br3861   1.932       .  S
C3857      C3858   1.423       .  A
C3863      C3864   1.410       .  A
C3863      C3868   1.405       .  A
C3863     Br3870   1.928       .  S
C3864      C3865   1.416       .  A
C3865      C3866   1.407       .  A
C3865     Br3872   1.932       .  S
C3866      C3867   1.413       .  A
C3866     Br3871   1.935       .  S
C3867      C3868   1.417       .  A
C3868     Br3869   1.936       .  S
C3873      C3874   1.418   1_545  A
C3873      C3878   1.409       .  A
C3874      C3875   1.418       .  A
C3875      C3876   1.411       .  A
C3875     Br3882   1.935       .  S
C3876      C3877   1.411       .  A
C3876     Br3881   1.928       .  S
C3877      C3878   1.408   1_565  A
C3883      C3884   1.422       .  A
C3883      C3888   1.403       .  A
C3883     Br3890   1.933       .  S
C3884      C3885   1.419       .  A
C3885      C3886   1.405       .  A
C3885     Br3892   1.931       .  S
C3886      C3887   1.404       .  A
C3886     Br3891   1.928       .  S
C3887      C3888   1.403       .  A
C3888     Br3889   1.935       .  S
C3893      C3894   1.410       .  A
C3893      C3898   1.404       .  A
C3893     Br3900   1.927       .  S
C3894      C3895   1.416       .  A
C3895      C3896   1.402       .  A
C3895     Br3902   1.938       .  S
C3896      C3897   1.413       .  A
C3896     Br3901   1.938       .  S
C3897      C3898   1.413       .  A
C3898     Br3899   1.933       .  S
C3903      C3904   1.422       .  A
C3903      C3908   1.411       .  A
C3903     Br3910   1.937       .  S
C3904      C3905   1.416       .  A
C3905      C3906   1.416       .  A
C3905     Br3912   1.932       .  S
C3906      C3907   1.417       .  A
C3907      C3908   1.409       .  A
C3908     Br3909   1.928       .  S
C3913      C3914   1.413       .  A
C3913      C3918   1.404       .  A
C3913     Br3920   1.927   1_565  S
C3914      C3915   1.416       .  A
C3915      C3916   1.414       .  A
C3915     Br3922   1.924       .  S
C3916      C3917   1.410       .  A
C3916     Br3921   1.929       .  S
C3917      C3918   1.413       .  A
C3918     Br3919   1.937   1_565  S
C3923      C3924   1.415       .  A
C3923      C3928   1.416       .  A
C3923     Br3930   1.935       .  S
C3924      C3925   1.418       .  A
C3925      C3926   1.418       .  A
C3925     Br3932   1.925       .  S
C3926      C3927   1.412       .  A
C3927      C3928   1.420       .  A
C3928     Br3929   1.934   1_655  S
C3933      C3934   1.419       .  A
C3933      C3938   1.412       .  A
C3933     Br3940   1.933       .  S
C3934      C3935   1.419       .  A
C3935      C3936   1.415       .  A
C3936      C3937   1.417       .  A
C3936     Br3941   1.936   1_655  S
C3937      C3938   1.411       .  A
C3938     Br3939   1.926       .  S
C3943      C3944   1.418       .  A
C3943      C3948   1.412       .  A
C3943     Br3950   1.937       .  S
C3944      C3945   1.422       .  A
C3945      C3946   1.413       .  A
C3945     Br3952   1.936       .  S
C3946      C3947   1.410       .  A
C3946     Br3951   1.928       .  S
C3947      C3948   1.417       .  A
C3948     Br3949   1.936       .  S
C3953     Br3960   1.935       .  S
C3954      C3955   1.431       .  A
C3955      C3956   1.410       .  A
C3955     Br3962   1.939       .  S
C3956      C3957   1.404       .  A
C3956     Br3961   1.932       .  S
C3957      C3958   1.404       .  A
C3963      C3964   1.418       .  A
C3963      C3968   1.403       .  A
C3963     Br3970   1.935       .  S
C3964      C3965   1.427       .  A
C3965      C3966   1.405       .  A
C3965     Br3972   1.939       .  S
C3966      C3967   1.402       .  A
C3966     Br3971   1.933       .  S
C3967      C3968   1.404       .  A
C3968     Br3969   1.928       .  S
C3973      C3974   1.408       .  A
C3973      C3978   1.405       .  A
C3973     Br3980   1.924       .  S
C3974      C3975   1.407       .  A
C3975      C3976   1.406       .  A
C3975     Br3982   1.933       .  S
C3976      C3977   1.418       .  A
C3976     Br3981   1.933       .  S
C3977      C3978   1.411       .  A
C3978     Br3979   1.931       .  S
C3983      C3984   1.409       .  A
C3983      C3988   1.406       .  A
C3983     Br3990   1.925       .  S
C3984      C3985   1.416       .  A
C3985      C3986   1.410       .  A
C3985     Br3992   1.937       .  S
C3986      C3987   1.417       .  A
C3986     Br3991   1.935       .  S
C3987      C3988   1.415       .  A
C3993      C3994   1.411       .  A
C3993      C3998   1.405       .  A
C3993     Br4000   1.937       .  S
C3994      C3995   1.420       .  A
C3996     Br4001   1.927       .  S
C3997      C3998   1.419       .  A
C3998     Br3999   1.938       .  S
C4003      C4004   1.427       .  A
C4003      C4008   1.410       .  A
C4003     Br4010   1.937       .  S
C4004      C4005   1.428       .  A
C4005      C4006   1.412       .  A
C4005     Br4012   1.936       .  S
C4006      C4007   1.404       .  A
C4006     Br4011   1.929       .  S
C4007      C4008   1.405       .  A
C4008     Br4009   1.931       .  S
C4013      C4014   1.410       .  A
C4013      C4018   1.411       .  A
C4013     Br4020   1.934       .  S
C4014      C4015   1.405       .  A
C4016     Br4021   1.933       .  S
C4017      C4018   1.422       .  A
C4018     Br4019   1.935       .  S
C4023      C4024   1.421       .  A
C4023      C4028   1.412       .  A
C4023     Br4030   1.937       .  S
C4024      C4025   1.424       .  A
C4025      C4026   1.409       .  A
C4025     Br4032   1.937       .  S
C4026      C4027   1.407       .  A
C4026     Br4031   1.930       .  S
C4027      C4028   1.414       .  A
C4028     Br4029   1.937       .  S
