geometry optimzed in LAMMPS
_audit_creation_date              2020-11-30 
_audit_creation_method            'lammps2cif' 
_symmetry_space_group_name_H-M    'P1' 
_symmetry_Int_Tables_number       1 
_symmetry_cell_setting            triclinic 
loop_ 
_symmetry_equiv_pos_as_xyz 
  x,y,z 
_cell_length_a                    43.00549645 
_cell_length_b                    42.90059113093791 
_cell_length_c                    42.927147362301774 
_cell_angle_alpha                 90.10448492090369 
_cell_angle_beta                  89.92846623203573 
_cell_angle_gamma                 90.0775249798475 
loop_ 
_atom_site_label 
_atom_site_type_symbol 
_atom_site_fract_x 
_atom_site_fract_y 
_atom_site_fract_z 
_atom_site_charge 
O1          O  0.51587799  0.40654618  0.06281510    -0.74600
O2          O  0.51210305  0.44377164  0.10077359    -0.53500
C3          C  0.51443785  0.41522529  0.09153957     0.79200
O4          O  0.59463258  0.49324700  0.95753355    -0.59200
O5          O  0.55655239  0.49416414  0.92037962    -0.52200
C6          C  0.58520118  0.49271940  0.92903379     0.71200
O7          O  0.59622308  0.49952129  0.06283754    -0.73700
O8          O  0.55932421  0.49671165  0.10103118    -0.54300
C9          C  0.58773138  0.49901154  0.09168290     0.77200
O10         O  0.51136149  0.40671709  0.95811070    -0.58900
O11         O  0.50689314  0.44483538  0.92121646    -0.52000
C12         C  0.50891329  0.41604440  0.92969698     0.73800
Zr13       Zr  0.51255894  0.42898415  0.01060210     2.54700
O14         O  0.55684538  0.39392223  0.00627791    -0.79400
O15         O  0.47336161  0.38800960  0.01269711    -0.92900
Zr16       Zr  0.57390888  0.49712138  0.01043919     2.64700
O17         O  0.61661549  0.46007411  0.01375318    -0.97800
O18         O  0.60957476  0.54121949  0.00814072    -0.79900
O19         O  0.54428536  0.46220728  0.04139934    -0.83200
O20         O  0.54280004  0.46307287  0.97981698    -2.17900
O21         O  0.42252576  0.48345592  0.96012999    -0.66600
O22         O  0.45838279  0.49036706  0.92153872    -0.51200
C23         C  0.43047907  0.48495397  0.93121803     0.72100
O24         O  0.50022671  0.57941046  0.06484458    -0.59500
O25         O  0.50826142  0.54209813  0.10188656    -0.51500
C26         C  0.50293056  0.57034769  0.09334664     0.73900
O27         O  0.50381863  0.58094785  0.95993132    -0.70900
O28         O  0.50610276  0.54416030  0.92149595    -0.49600
C29         C  0.50429647  0.57264428  0.93107640     0.75300
O30         O  0.42340728  0.48784554  0.06475196    -0.66300
O31         O  0.46138126  0.49093319  0.10182678    -0.53500
C32         C  0.43274667  0.48853660  0.09324466     0.73700
Zr33       Zr  0.44456090  0.49084857  0.01203261     2.77500
O34         O  0.40608886  0.53246342  0.01032930    -0.97000
O35         O  0.40393048  0.45134089  0.01379923    -0.77800
Zr36       Zr  0.50662822  0.55866564  0.01203374     2.70100
O37         O  0.47141886  0.60306528  0.01190992    -0.79100
O38         O  0.55149259  0.59338889  0.01349117    -0.98200
Zr39       Zr  0.51014844  0.49331700  0.07260129     2.21500
Zr40       Zr  0.50786112  0.49441654  0.94969888     2.11100
O41         O  0.47420739  0.52580826  0.98128039    -2.46800
O42         O  0.47534696  0.52495529  0.04275560    -0.78900
O43         O  0.47765500  0.45963311  0.98084656    -0.71100
O44         O  0.54103225  0.52814680  0.04204860    -2.32000
O45         O  0.47855750  0.45921985  0.04179863    -2.28200
O46         O  0.54010598  0.52853375  0.98004314    -0.72800
H47         H  0.55573630  0.45045079  0.96649379     0.79200
H48         H  0.55326291  0.54161407  0.05526925     0.80300
H49         H  0.46054738  0.53809389  0.96840009     0.82500
H50         H  0.46655218  0.44553967  0.05494363     0.80100
H51         H  0.60832053  0.54875422  0.98639612     0.43100
H52         H  0.54287505  0.61422413  0.00871121     0.42100
H53         H  0.45389658  0.59651578  0.99845777     0.41800
H54         H  0.41423126  0.54860519  0.02468446     0.39700
H55         H  0.41373689  0.43330126  0.02423346     0.42800
H56         H  0.45716488  0.39483910  0.99783313     0.37600
H57         H  0.55017697  0.37466998  0.01708043     0.43700
H58         H  0.61232680  0.44452555  0.99723450     0.40200
H59         H  0.40817698  0.54177958  0.98934755     0.45100
H60         H  0.46344483  0.39025586  0.03340527     0.43800
H61         H  0.63500726  0.47173886  0.00618163     0.43900
H62         H  0.55742260  0.59466956  0.03573175     0.44300
C63         C  0.22426348  0.50555244  0.26741196     0.03800
C64         C  0.20367621  0.52339496  0.24960049    -0.12300
C65         C  0.21081075  0.53193681  0.21911280     0.01300
C66         C  0.23980392  0.52392059  0.20675579    -0.10800
C67         C  0.26116822  0.50607706  0.22399142     0.03800
C68         C  0.25342965  0.49699671  0.25476070    -0.10300
H69         H  0.18115513  0.52947710  0.25922393     0.09400
H70         H  0.24517159  0.53024129  0.18290822     0.07000
H71         H  0.26890193  0.48200990  0.26780355     0.06800
C72         C  0.79220329  0.51112492  0.27273647     0.03800
C73         C  0.81401128  0.52830337  0.25546866    -0.12300
C74         C  0.80651197  0.54046648  0.22631641     0.01300
C75         C  0.77701403  0.53481770  0.21403179    -0.10800
C76         C  0.75497941  0.51665816  0.22998972     0.03800
C77         C  0.76231612  0.50526154  0.26004843    -0.10300
H78         H  0.83721166  0.53190044  0.26470562     0.09400
H79         H  0.77168723  0.54320646  0.19086438     0.07000
H80         H  0.74590895  0.49068828  0.27247814     0.06800
C81         C  0.25738701  0.49030681  0.80319560     0.03800
C82         C  0.24944904  0.48273219  0.77220754    -0.12300
C83         C  0.21919188  0.48911330  0.76125275     0.01300
C84         C  0.19770991  0.50417146  0.78086172    -0.10800
C85         C  0.20583916  0.51307986  0.81113748     0.03800
C86         C  0.23558765  0.50569878  0.82214716    -0.10300
H87         H  0.26586474  0.47043941  0.75750577     0.09400
H88         H  0.17446469  0.50896682  0.77238308     0.07000
H89         H  0.24171648  0.51119848  0.84599319     0.06800
C90         C  0.75500576  0.50660057  0.79813775     0.03800
C91         C  0.76504086  0.49638351  0.76849623    -0.12300
C92         C  0.79586637  0.50236897  0.75890152     0.01300
C93         C  0.81584908  0.51900500  0.77865029    -0.10800
C94         C  0.80597419  0.52929473  0.80800997     0.03800
C95         C  0.77541501  0.52345348  0.81732168    -0.10300
H96         H  0.74981487  0.48236789  0.75405560     0.09400
H97         H  0.83953867  0.52337452  0.77120158     0.07000
H98         H  0.76795521  0.53039415  0.84046157     0.06800
N99         N  0.00773675  0.58826993  0.06205386    -0.35900
N100        N  0.95654282  0.59389127  0.01845357    -0.56500
N101        N  0.00295245  0.58834385  0.96838426    -0.35900
N102        N  0.05400421  0.58766725  0.01212164    -0.56500
C103        C  0.98398631  0.59655431  0.08098250     0.27700
C104        C  0.03435921  0.59358449  0.07786335     0.27700
C105        C  0.97696178  0.59688078  0.95291237     0.27700
C106        C  0.02751285  0.59340137  0.94921360     0.27700
C107        C  0.94113253  0.58539837  0.04457825     0.36300
C108        C  0.93841015  0.58522423  0.99426095     0.36300
C109        C  0.07135736  0.57793537  0.03651061     0.36300
C110        C  0.06880958  0.57786294  0.98604021     0.36300
C111        C  0.99564431  0.60810903  0.10879910    -0.21200
C112        C  0.02748735  0.60616362  0.10686366    -0.21200
C113        C  0.98513828  0.60834625  0.92381297    -0.21200
C114        C  0.01705450  0.60622015  0.92150876    -0.21200
C115        C  0.91302369  0.57156728  0.03705212    -0.22200
C116        C  0.91137149  0.57125161  0.00511292    -0.22200
C117        C  0.09730512  0.56202863  0.02590826    -0.22200
C118        C  0.09570072  0.56195231  0.99398061    -0.22200
C119        C  0.95235793  0.59016614  0.07503998    -0.17600
C120        C  0.06415169  0.58381619  0.06813786    -0.17600
C121        C  0.05843062  0.58365008  0.95528369    -0.17600
C122        C  0.94621054  0.59006123  0.96265510    -0.17600
H123        H  0.98256478  0.61617041  0.12879922     0.15300
H124        H  0.04368209  0.61247092  0.12510093     0.15300
H125        H  0.96960202  0.61639107  0.90571445     0.15300
H126        H  0.03083517  0.61259218  0.90139161     0.15300
H127        H  0.89596722  0.56180269  0.05282766     0.13600
H128        H  0.89275204  0.56101051  0.99162288     0.13600
H129        H  0.11514891  0.55085221  0.03964549     0.13600
H130        H  0.11207306  0.55055864  0.97860325     0.13600
H131        H  0.00577468  0.57530557  0.04164628     0.26900
H132        H  0.00334984  0.57531465  0.98878960     0.26900
O133        O  0.06059638  0.49255755  0.42461153    -0.74600
O134        O  0.09892941  0.49437015  0.46146812    -0.53500
C135        C  0.08933760  0.49340909  0.43313221     0.79200
O136        O  0.96045831  0.58059170  0.51520581    -0.59200
O137        O  0.92200302  0.54380279  0.51350511    -0.52200
C138        C  0.93165132  0.57231579  0.51450001     0.71200
O139        O  0.06488351  0.57840373  0.50692051    -0.73700
O140        O  0.10248820  0.54104538  0.50889526    -0.54300
C141        C  0.09361526  0.56975485  0.50694191     0.77200
O142        O  0.95497819  0.48798644  0.42764460    -0.58900
O143        O  0.91887247  0.49401901  0.46625613    -0.52000
C144        C  0.92666725  0.49018114  0.43756141     0.73800
Zr145      Zr  0.00854923  0.49274636  0.44756726     2.54700
O146        O  0.00465590  0.53548327  0.41054124    -0.79400
O147        O  0.01094237  0.45422196  0.40593188    -0.92900
Zr148      Zr  0.01214633  0.55748947  0.51274669     2.64700
O149        O  0.00823570  0.59806220  0.47329858    -0.97800
O150        O  0.01727079  0.59578000  0.55442079    -0.79900
O151        O  0.04099883  0.52499085  0.47883618    -0.83200
O152        O  0.97972779  0.52616047  0.48055904    -2.17900
O153        O  0.95721649  0.40646818  0.51058007    -0.66600
O154        O  0.91967503  0.44407893  0.51178988    -0.51200
C155        C  0.92856263  0.41528929  0.51071193     0.72100
O156        O  0.06399807  0.48406558  0.59866653    -0.59500
O157        O  0.10070559  0.48976849  0.56048537    -0.51500
C158        C  0.09237856  0.48529497  0.58903284     0.73900
O159        O  0.95981011  0.48924777  0.60097676    -0.70900
O160        O  0.92183208  0.49320560  0.56400327    -0.49600
C161        C  0.93106195  0.49044142  0.59243827     0.75300
O162        O  0.06266446  0.40573365  0.51027751    -0.66300
O163        O  0.10105337  0.44239751  0.50729958    -0.53500
C164        C  0.09154019  0.41378714  0.50807957     0.73700
Zr165      Zr  0.01003447  0.42777863  0.51241701     2.77500
O166        O  0.00940912  0.39034244  0.55501794    -0.97000
O167        O  0.01002494  0.38656195  0.47337422    -0.77800
Zr168      Zr  0.01183056  0.49266026  0.57751880     2.70100
O169        O  0.01167035  0.45794468  0.62228620    -0.79100
O170        O  0.01305624  0.53885117  0.61052893    -0.98200
Zr171      Zr  0.07222907  0.49208189  0.51115796     2.21500
Zr172      Zr  0.94923041  0.49343871  0.51400364     2.11100
O173        O  0.98023443  0.45995548  0.54602705    -2.46800
O174        O  0.04166516  0.45951427  0.54463913    -0.78900
O175        O  0.97869301  0.46001464  0.48040958    -0.71100
O176        O  0.04300678  0.52522800  0.54525793    -2.32000
O177        O  0.03990550  0.45976744  0.47885205    -2.28200
O178        O  0.98108869  0.52604416  0.54616975    -0.72800
H179        H  0.96653439  0.53927200  0.46796264     0.79200
H180        H  0.05682133  0.53768018  0.55789109     0.80300
H181        H  0.96718533  0.44693367  0.55892941     0.82500
H182        H  0.05246853  0.44680404  0.46543693     0.80100
H183        H  0.03564416  0.58912069  0.56656382     0.43100
H184        H  0.99201821  0.54798984  0.60852739     0.42100
H185        H  0.00328847  0.43803783  0.61412330     0.41800
H186        H  0.98910282  0.39342304  0.56546408     0.39700
H187        H  0.02032864  0.39593517  0.45499912     0.42800
H188        H  0.99969663  0.46388400  0.38831092     0.37600
H189        H  0.02407767  0.54755196  0.41344649     0.43700
H190        H  0.01704572  0.61690495  0.48332835     0.40200
H191        H  0.00749451  0.36981336  0.54460771     0.45100
H192        H  0.99718541  0.43710938  0.41299393     0.43800
H193        H  0.02369217  0.59220039  0.45722144     0.43900
H194        H  0.01366568  0.53055269  0.63202536     0.44300
C195        C  0.50807274  0.78887175  0.25357592     0.03800
C196        C  0.50543438  0.75678423  0.24626926    -0.12300
C197        C  0.49496821  0.74766194  0.21637129     0.01300
C198        C  0.48652321  0.77071371  0.19480089    -0.10800
C199        C  0.48914652  0.80238864  0.20181187     0.03800
C200        C  0.50057724  0.81121073  0.23094864    -0.10300
H201        H  0.51125846  0.73934666  0.26350189     0.09400
H202        H  0.47812035  0.76391433  0.17198113     0.07000
H203        H  0.50214278  0.83569450  0.23683637     0.06800
C204        C  0.49773034  0.20206758  0.26184547     0.03800
C205        C  0.47924393  0.18185515  0.24389131    -0.12300
C206        C  0.46738465  0.19109175  0.21510313     0.01300
C207        C  0.47464516  0.22073803  0.20372129    -0.10800
C208        C  0.49413815  0.24112502  0.22032606     0.03800
C209        C  0.50509200  0.23207117  0.25009376    -0.10300
H210        H  0.47416152  0.15859949  0.25237808     0.09400
H211        H  0.46645380  0.22746455  0.18084359     0.07000
H212        H  0.52046990  0.24731638  0.26304653     0.06800
C213        C  0.48389463  0.24728460  0.79663239     0.03800
C214        C  0.49576319  0.23573150  0.76817622    -0.12300
C215        C  0.48623100  0.20615279  0.75738927     0.01300
C216        C  0.46441087  0.18906227  0.77476008    -0.10800
C217        C  0.45184892  0.20070620  0.80253837     0.03800
C218        C  0.46164072  0.22996364  0.81318602    -0.10300
H219        H  0.51359017  0.24856774  0.75577808     0.09400
H220        H  0.45766621  0.16601625  0.76682239     0.07000
H221        H  0.45334419  0.23880193  0.83531652     0.06800
C222        C  0.47961373  0.74274702  0.79620290     0.03800
C223        C  0.46399984  0.76630012  0.81266336    -0.12300
C224        C  0.46005687  0.79620060  0.80043029     0.01300
C225        C  0.47193799  0.80265399  0.77084853    -0.10800
C226        C  0.48650260  0.77928938  0.75303547     0.03800
C227        C  0.49019301  0.74898843  0.76561330    -0.10300
H228        H  0.45597472  0.76150133  0.83603772     0.09400
H229        H  0.46971987  0.82599857  0.76146501     0.07000
H230        H  0.50265290  0.73132194  0.75260137     0.06800
N231        N  0.40568914  0.99934141  0.04722300    -0.35900
N232        N  0.40442781  0.95290203  0.99865223    -0.56500
N233        N  0.39213438  0.00276853  0.95527980    -0.35900
N234        N  0.38870150  0.04937691  0.00469107    -0.56500
C235        C  0.40428636  0.97249760  0.06363152     0.27700
C236        C  0.39658623  0.02242881  0.06659221     0.27700
C237        C  0.38576361  0.97713301  0.93801118     0.27700
C238        C  0.37785838  0.02709215  0.94142309     0.27700
C239        C  0.41852878  0.93643481  0.02133757     0.36300
C240        C  0.41102822  0.93827056  0.97162051     0.36300
C241        C  0.39818587  0.06628110  0.02961322     0.36300
C242        C  0.39096686  0.06821825  0.97951082     0.36300
C243        C  0.39323846  0.97843553  0.09339200    -0.21200
C244        C  0.38822682  0.01000683  0.09521851    -0.21200
C245        C  0.36650660  0.98498134  0.91343847    -0.21200
C246        C  0.36130580  0.01655591  0.91571880    -0.21200
C247        C  0.43423689  0.91120608  0.00866355    -0.22200
C248        C  0.42930814  0.91226348  0.97709252    -0.22200
C249        C  0.40578328  0.09624983  0.02040634    -0.22200
C250        C  0.40137138  0.09746700  0.98869329    -0.22200
C251        C  0.41588547  0.94357103  0.05329236    -0.17600
C252        C  0.40016314  0.05449896  0.06032785    -0.17600
C253        C  0.38373236  0.05875124  0.94865687    -0.17600
C254        C  0.39947428  0.94766689  0.94244133    -0.17600
H255        H  0.38989487  0.96186361  0.11208271     0.15300
H256        H  0.38040607  0.02257196  0.11565737     0.15300
H257        H  0.35777469  0.96969127  0.89536293     0.15300
H258        H  0.34792750  0.03044783  0.89954949     0.15300
H259        H  0.44814064  0.89402441  0.02065610     0.13600
H260        H  0.43854696  0.89599659  0.96017318     0.13600
H261        H  0.41459941  0.11506820  0.03468031     0.13600
H262        H  0.40635578  0.11750512  0.97434414     0.13600
H263        H  0.41681306  0.00241597  0.02587660     0.26900
H264        H  0.40910070  0.00443011  0.97250669     0.26900
C265        C  0.21752610  0.74518251  0.46900615     0.03800
C266        C  0.19825304  0.76497560  0.45114344    -0.12300
C267        C  0.20791017  0.79510561  0.44288589     0.01300
C268        C  0.23747867  0.80511565  0.45212062    -0.10800
C269        C  0.25687590  0.78656936  0.47064397     0.03800
C270        C  0.24721439  0.75602935  0.47846906    -0.10300
H271        H  0.17506348  0.75734505  0.44481634     0.09400
H272        H  0.24541284  0.82814173  0.44553041     0.07000
H273        H  0.26152209  0.74184278  0.49357196     0.06800
C274        C  0.75908354  0.20132895  0.48430271     0.03800
C275        C  0.77191257  0.23084125  0.49206957    -0.12300
C276        C  0.80219969  0.23894738  0.48171500     0.01300
C277        C  0.81820657  0.21802235  0.46209256    -0.10800
C278        C  0.80561651  0.18887631  0.45425731     0.03800
C279        C  0.77642630  0.18056656  0.46592187    -0.10300
H280        H  0.75932875  0.24639570  0.50744739     0.09400
H281        H  0.84128359  0.22397081  0.45386019     0.07000
H282        H  0.76705107  0.15767276  0.46064861     0.06800
C283        C  0.25641785  0.19520484  0.48653656     0.03800
C284        C  0.24570522  0.22585102  0.49274934    -0.12300
C285        C  0.21652646  0.23583513  0.48102975     0.01300
C286        C  0.19898935  0.21528104  0.46241189    -0.10800
C287        C  0.20943216  0.18505145  0.45576311     0.03800
C288        C  0.23817574  0.17540896  0.46773640    -0.10300
H289        H  0.25890899  0.24097719  0.50803751     0.09400
H290        H  0.17639265  0.22256376  0.45396596     0.07000
H291        H  0.24638386  0.15207218  0.46270426     0.06800
C292        C  0.80394398  0.74586497  0.49036159     0.03800
C293        C  0.77354315  0.75554127  0.49863890    -0.12300
C294        C  0.76293394  0.78552828  0.48991830     0.01300
C295        C  0.78251656  0.80488331  0.47222334    -0.10800
C296        C  0.81238005  0.79530344  0.46344967     0.03800
C297        C  0.82292067  0.76590425  0.47277583    -0.10300
H298        H  0.75912812  0.74076645  0.51313735     0.09400
H299        H  0.77452363  0.82791605  0.46566898     0.07000
H300        H  0.84642515  0.75878535  0.46709043     0.06800
N301        N  0.00501186  0.94513350  0.36520841    -0.35900
N302        N  0.05121647  0.99430352  0.36646989    -0.56500
N303        N  0.00372912  0.04339802  0.36294127    -0.35900
N304        N  0.95784645  0.99355073  0.36495221    -0.56500
C305        C  0.03056293  0.92950532  0.37482448     0.27700
C306        C  0.97992678  0.92966310  0.37642611     0.27700
C307        C  0.02863264  0.05959961  0.37359633     0.27700
C308        C  0.97782010  0.05891761  0.37212916     0.27700
C309        C  0.06978886  0.96931672  0.36117203     0.36300
C310        C  0.06900560  0.01992954  0.36172452     0.36300
C311        C  0.94014933  0.96789647  0.36063443     0.36300
C312        C  0.93957910  0.01818474  0.35826047     0.36300
C313        C  0.02160181  0.90379774  0.39220488    -0.21200
C314        C  0.98971644  0.90392195  0.39326757    -0.21200
C315        C  0.01835132  0.08609169  0.38909721    -0.21200
C316        C  0.98635642  0.08571442  0.38805827    -0.21200
C317        C  0.09915974  0.97916925  0.35221622    -0.22200
C318        C  0.09868821  0.01116143  0.35265676    -0.22200
C319        C  0.91094272  0.97616861  0.34988199    -0.22200
C320        C  0.91058029  0.00811730  0.34836029    -0.22200
C321        C  0.06165285  0.93811968  0.36832732    -0.17600
C322        C  0.94854848  0.93804259  0.37133912    -0.17600
C323        C  0.94678966  0.04898053  0.36708959    -0.17600
C324        C  0.06022555  0.05068114  0.36990956    -0.17600
H325        H  0.03634794  0.88719994  0.40400287     0.15300
H326        H  0.97561279  0.88728399  0.40585306     0.15300
H327        H  0.03221156  0.10341864  0.40103290     0.15300
H328        H  0.97120460  0.10271007  0.39886027     0.15300
H329        H  0.11916075  0.96485641  0.34683716     0.13600
H330        H  0.11825969  0.02627051  0.34774789     0.13600
H331        H  0.89147560  0.96087603  0.34513827     0.13600
H332        H  0.89071661  0.02238373  0.34242199     0.13600
H333        H  0.00473154  0.96395641  0.34989122     0.26900
H334        H  0.00442925  0.02360060  0.34885184     0.26900
O335        O  0.42240967  0.94082368  0.50195632    -0.74600
O336        O  0.45951446  0.90277158  0.50311434    -0.53500
C337        C  0.43099936  0.91208382  0.50175965     0.79200
O338        O  0.51701503  0.04842754  0.42623721    -0.59200
O339        O  0.51030499  0.08460242  0.46475566    -0.52200
C340        C  0.51436015  0.07672797  0.43602660     0.71200
O341        O  0.51716069  0.94300007  0.42188903    -0.73700
O342        O  0.51053639  0.90397289  0.45739283    -0.54300
C343        C  0.51452800  0.91405128  0.42942947     0.77200
O344        O  0.42281139  0.04487637  0.51337698    -0.58900
O345        O  0.46041169  0.08250736  0.51414562    -0.52000
C346        C  0.43175089  0.07353163  0.51501550     0.73800
Zr347      Zr  0.44506311  0.99288631  0.50586825     2.54700
O348        O  0.41322107  0.99839886  0.45934163    -0.79400
O349        O  0.40066550  0.98975382  0.54108353    -0.92900
Zr350      Zr  0.51467542  0.99479928  0.44563963     2.64700
O351        O  0.47817334  0.99355758  0.40224096    -0.97800
O352        O  0.55894298  0.99832261  0.41036785    -0.79900
O353        O  0.47914260  0.96324711  0.47393573    -0.83200
O354        O  0.47917838  0.02450879  0.47613162    -2.17900
O355        O  0.50738959  0.04176981  0.59905230    -0.66600
O356        O  0.50993053  0.08059347  0.56268725    -0.51200
C357        C  0.50918930  0.07077319  0.59102210     0.72100
O358        O  0.59652565  0.93935707  0.51802757    -0.59500
O359        O  0.55898307  0.90233060  0.51041027    -0.51500
C360        C  0.58752502  0.91083867  0.51491126     0.73900
O361        O  0.59660317  0.04474020  0.51800486    -0.70900
O362        O  0.55913129  0.08208747  0.51267479    -0.49600
C363        C  0.58767565  0.07338154  0.51567259     0.75300
O364        O  0.50791721  0.93526043  0.59387443    -0.66300
O365        O  0.50565125  0.89930754  0.55457754    -0.53500
C366        C  0.50727431  0.90693357  0.58353684     0.73700
Zr367      Zr  0.50520707  0.98950376  0.57523280     2.77500
O368        O  0.54224327  0.98559209  0.61787042    -0.97000
O369        O  0.46062945  0.98861981  0.61034241    -0.77800
Zr370      Zr  0.57446770  0.99194717  0.51509517     2.70100
O371        O  0.61037941  0.99135487  0.55887059    -0.79100
O372        O  0.61519841  0.99320482  0.47561766    -0.98200
Zr373      Zr  0.50919576  0.93078395  0.50756020     2.21500
Zr374      Zr  0.50967930  0.05365413  0.51259888     2.11100
O375        O  0.54012138  0.02144346  0.54656637    -2.46800
O376        O  0.53971750  0.96003932  0.54385815    -0.78900
O377        O  0.47486551  0.02181244  0.54226014    -0.71100
O378        O  0.54496657  0.96247626  0.47864035    -2.32000
O379        O  0.47438308  0.96044752  0.53965930    -2.28200
O380        O  0.54497494  0.02406232  0.48129045    -0.72800
H381        H  0.46710985  0.03820513  0.46300418     0.79200
H382        H  0.55879148  0.94968900  0.46636198     0.80300
H383        H  0.55240108  0.03395063  0.56057500     0.82500
H384        H  0.46065554  0.94684578  0.55106864     0.80100
H385        H  0.57156786  0.97958267  0.41483729     0.43100
H386        H  0.63348443  0.00213197  0.48644181     0.42100
H387        H  0.60150137  0.97582621  0.57343540     0.41800
H388        H  0.55730149  0.00267175  0.61419505     0.39700
H389        H  0.45007791  0.96855592  0.60599759     0.42800
H390        H  0.40282974  0.96954985  0.55197874     0.37600
H391        H  0.39239465  0.00422366  0.46727260     0.43700
H392        H  0.47497482  0.01562054  0.39638059     0.40200
H393        H  0.53044105  0.99214946  0.63657729     0.45100
H394        H  0.38242245  0.98700305  0.52729386     0.43800
H395        H  0.49013969  0.98462103  0.38464310     0.43900
H396        H  0.62079887  0.97114090  0.47188157     0.44300
C397        C  0.65717954  0.86789558  0.52197650     0.30500
C398        C  0.68886425  0.86386745  0.52880454    -0.35900
C399        C  0.70263354  0.83616007  0.51813168     0.16500
C400        C  0.68661155  0.81384251  0.50144831     0.22300
C401        C  0.65460585  0.81767267  0.49501069    -0.34000
C402        C  0.64061914  0.84538193  0.50609341     0.16400
O403        O  0.64051662  0.89311147  0.52785634    -0.26000
C404        C  0.61251103  0.88680819  0.51608371     0.06200
C405        C  0.61117388  0.85723421  0.50243414    -0.30900
O406        O  0.70516016  0.79135832  0.49094153    -0.22700
C407        C  0.73331824  0.79926235  0.50152796    -0.02700
C408        C  0.73288348  0.82689447  0.51857711    -0.17100
H409        H  0.70220347  0.88168282  0.54068786     0.20900
H410        H  0.64176111  0.80078714  0.48137127     0.19200
H411        H  0.59188390  0.84677460  0.49006219     0.19200
H412        H  0.75258967  0.83960052  0.52783198     0.15000
C413        C  0.85208112  0.85906446  0.43071385     0.30500
C414        C  0.85900925  0.89067687  0.42617664    -0.35900
C415        C  0.88450191  0.89708747  0.40686296     0.16500
C416        C  0.90187865  0.87403651  0.39273633     0.22300
C417        C  0.89504966  0.84237014  0.39741115    -0.34000
C418        C  0.86971243  0.83593332  0.41703664     0.16400
O419        O  0.82962764  0.84787485  0.44837169    -0.26000
C420        C  0.83296607  0.81709397  0.44633234     0.06200
C421        C  0.85767630  0.80833228  0.42715155    -0.30900
O422        O  0.92571191  0.88532080  0.37700511    -0.22700
C423        C  0.92367458  0.91602245  0.38118159    -0.02700
C424        C  0.89840159  0.92460264  0.39960541    -0.17100
H425        H  0.84582881  0.90898607  0.43744583     0.20900
H426        H  0.90897717  0.82405733  0.38709646     0.19200
H427        H  0.86556358  0.78508764  0.42136178     0.19200
H428        H  0.89227076  0.94762037  0.40794930     0.15000
C429        C  0.36115296  0.11415498  0.52296779     0.30500
C430        C  0.32876667  0.11603067  0.52602155    -0.35900
C431        C  0.31509784  0.14457956  0.51813822     0.16500
C432        C  0.33194902  0.17000227  0.50804733     0.22300
C433        C  0.36478144  0.16842180  0.50594581    -0.34000
C434        C  0.37858781  0.13949629  0.51364075     0.16400
O435        O  0.37774460  0.08845810  0.52550221    -0.26000
C436        C  0.40654845  0.09703802  0.51803643     0.06200
C437        C  0.40859790  0.12874445  0.51072593    -0.30900
O438        O  0.31367705  0.19275373  0.49762602    -0.22700
C439        C  0.28481993  0.18159421  0.50126911    -0.02700
C440        C  0.28462773  0.15187310  0.51426467    -0.17100
H441        H  0.31490377  0.09587631  0.53216605     0.20900
H442        H  0.37840057  0.18767290  0.49702826     0.19200
H443        H  0.42873991  0.14143426  0.50246145     0.19200
H444        H  0.26482962  0.13663012  0.51765557     0.15000
C445        C  0.15249554  0.14660568  0.41042258     0.30500
C446        C  0.12618907  0.14429169  0.39104796    -0.35900
C447        C  0.11338453  0.11430348  0.38749181     0.16500
C448        C  0.12568916  0.08847798  0.40202348     0.22300
C449        C  0.15226510  0.09067788  0.42083850    -0.34000
C450        C  0.16505758  0.12056873  0.42433598     0.16400
O451        O  0.16680551  0.17256451  0.41889283    -0.26000
C452        C  0.18911906  0.16304254  0.43822754     0.06200
C453        C  0.18913043  0.13078642  0.44226810    -0.30900
O454        O  0.10905473  0.06311547  0.39724647    -0.22700
C455        C  0.08562018  0.07254039  0.37934618    -0.02700
C456        C  0.08734767  0.10423323  0.37220150    -0.17100
H457        H  0.11584309  0.16458938  0.38032596     0.20900
H458        H  0.16175217  0.07059248  0.43270554     0.19200
H459        H  0.20357426  0.11698155  0.45756562     0.19200
H460        H  0.07130478  0.11796492  0.35851681     0.15000
C461        C  0.63839886  0.13776286  0.50531478     0.30500
C462        C  0.64947703  0.16580750  0.49201017    -0.35900
C463        C  0.68096413  0.17339608  0.49777024     0.16500
C464        C  0.70002478  0.15459370  0.51541895     0.22300
C465        C  0.68894816  0.12688532  0.52880808    -0.34000
C466        C  0.65777315  0.11926789  0.52292524     0.16400
O467        O  0.61059420  0.12485451  0.50122178    -0.26000
C468        C  0.61241776  0.09763797  0.51624737     0.06200
C469        C  0.64127771  0.09311694  0.53014548    -0.30900
O470        O  0.72930802  0.16379740  0.51505640    -0.22700
C471        C  0.72942481  0.18931199  0.49743693    -0.02700
C472        C  0.69987788  0.19638345  0.48591536    -0.17100
H473        H  0.63497159  0.18000910  0.47714094     0.20900
H474        H  0.70409570  0.11148040  0.54171093     0.19200
H475        H  0.64930628  0.07290039  0.54285028     0.19200
H476        H  0.69385019  0.21394404  0.46889929     0.15000
C477        C  0.84506537  0.12418524  0.42295384     0.30500
C478        C  0.85566160  0.09324583  0.42221321    -0.35900
C479        C  0.88054904  0.08711431  0.40191447     0.16500
C480        C  0.89401251  0.10974234  0.38345281     0.22300
C481        C  0.88305805  0.14052211  0.38382837    -0.34000
C482        C  0.85840782  0.14674933  0.40434598     0.16400
O483        O  0.82392180  0.13572143  0.44208106    -0.26000
C484        C  0.82391945  0.16614275  0.43584516     0.06200
C485        C  0.84475982  0.17421885  0.41236123    -0.30900
O486        O  0.91855543  0.09943312  0.36805434    -0.22700
C487        C  0.92068705  0.06969265  0.37652879    -0.02700
C488        C  0.89761314  0.06080930  0.39756261    -0.17100
H489        H  0.84606319  0.07550203  0.43734105     0.20900
H490        H  0.89390551  0.15866849  0.37010034     0.19200
H491        H  0.84995291  0.19718407  0.40334197     0.19200
H492        H  0.89481526  0.03854626  0.40907685     0.15000
C493        C  0.35981915  0.87194882  0.50280575     0.30500
C494        C  0.32742760  0.86976967  0.50513221    -0.35900
C495        C  0.31439085  0.84067089  0.49818132     0.16500
C496        C  0.33178562  0.81513879  0.48938194     0.22300
C497        C  0.36455957  0.81718584  0.48768877    -0.34000
C498        C  0.37777226  0.84656046  0.49470914     0.16400
O499        O  0.37623678  0.89762990  0.50633387    -0.26000
C500        C  0.40540366  0.88896094  0.50075223     0.06200
C501        C  0.40788564  0.85728160  0.49353303    -0.30900
O502        O  0.31407562  0.79129219  0.48048837    -0.22700
C503        C  0.28505127  0.80186905  0.48388150    -0.02700
C504        C  0.28415002  0.83233085  0.49514914    -0.17100
H505        H  0.31320462  0.88981607  0.51074143     0.20900
H506        H  0.37863921  0.79768796  0.48015952     0.19200
H507        H  0.42859837  0.84436747  0.48735358     0.19200
H508        H  0.26398089  0.84711797  0.49821246     0.15000
C509        C  0.12736992  0.89608787  0.39327268     0.30500
C510        C  0.15470788  0.89196127  0.41037146    -0.35900
C511        C  0.16484670  0.86119244  0.41390400     0.16500
C512        C  0.14933778  0.83589890  0.40155968     0.22300
C513        C  0.12210230  0.84008451  0.38379541    -0.34000
C514        C  0.11188291  0.87110612  0.38021558     0.16400
O515        O  0.11254247  0.92267444  0.38965568    -0.26000
C516        C  0.08704504  0.91502484  0.37390570     0.06200
C517        C  0.08568618  0.88318422  0.36690842    -0.30900
O518        O  0.16225663  0.80905058  0.40968291    -0.22700
C519        C  0.18655098  0.81746374  0.42718082    -0.02700
C520        C  0.18899238  0.84970309  0.43050509    -0.17100
H521        H  0.16667219  0.91137134  0.42118057     0.20900
H522        H  0.10923608  0.82054263  0.37435527     0.19200
H523        H  0.06721710  0.87056755  0.35528329     0.19200
H524        H  0.20538781  0.86297935  0.44429394     0.15000
C525        C  0.50234698  0.84025474  0.63176269     0.30500
C526        C  0.49005883  0.81191873  0.64319773    -0.35900
C527        C  0.49822441  0.80389781  0.67403628     0.16500
C528        C  0.51756291  0.82231964  0.69194407     0.22300
C529        C  0.53019394  0.85007778  0.68038106    -0.34000
C530        C  0.52149535  0.85838113  0.65013410     0.16400
O531        O  0.49525133  0.85422400  0.60511438    -0.26000
C532        C  0.50971808  0.88177247  0.60698310     0.06200
C533        C  0.52636096  0.88539836  0.63443333    -0.30900
O534        O  0.51838043  0.81361568  0.72131220    -0.22700
C535        C  0.49966849  0.78896052  0.72270571    -0.02700
C536        C  0.48650982  0.78169057  0.69386124    -0.17100
H537        H  0.47365780  0.79821608  0.62982461     0.20900
H538        H  0.54396074  0.86542839  0.69490942     0.19200
H539        H  0.53932434  0.90561648  0.64218034     0.19200
H540        H  0.46806535  0.76516398  0.68913738     0.15000
C541        C  0.43458931  0.86483316  0.83791542     0.30500
C542        C  0.43398686  0.89687855  0.84485384    -0.35900
C543        C  0.41878421  0.90526189  0.87265811     0.16500
C544        C  0.40515547  0.88358424  0.89213125     0.22300
C545        C  0.40522755  0.85182262  0.88488647    -0.34000
C546        C  0.42042854  0.84351643  0.85731414     0.16400
O547        O  0.44964617  0.85128307  0.81469041    -0.26000
C548        C  0.44503455  0.82089457  0.81943820     0.06200
C549        C  0.42664526  0.81494997  0.84550454    -0.30900
O550        O  0.39517825  0.89583557  0.91840252    -0.22700
C551        C  0.40219134  0.92587724  0.91580605    -0.02700
C552        C  0.41668441  0.93320292  0.88770454    -0.17100
H553        H  0.44570247  0.91387619  0.83038285     0.20900
H554        H  0.39541608  0.83458996  0.90045789     0.19200
H555        H  0.41946295  0.79282594  0.85519005     0.19200
H556        H  0.42632699  0.95539070  0.88056687     0.15000
C557        C  0.51071049  0.13660132  0.64101644     0.30500
C558        C  0.50721450  0.16812642  0.65015443    -0.35900
C559        C  0.50784362  0.17413402  0.68255933     0.16500
C560        C  0.51204930  0.15063072  0.70404553     0.22300
C561        C  0.51598224  0.11957625  0.69494976    -0.34000
C562        C  0.51481496  0.11358707  0.66299120     0.16400
O563        O  0.50854024  0.12496076  0.61241316    -0.26000
C564        C  0.51103787  0.09414304  0.61648103     0.06200
C565        C  0.51500946  0.08596858  0.64750971    -0.30900
O566        O  0.50773380  0.15995948  0.73286790    -0.22700
C567        C  0.50070208  0.19000123  0.73050116    -0.02700
C568        C  0.50078327  0.20039264  0.69964326    -0.17100
H569        H  0.50271036  0.18635642  0.63336657     0.20900
H570        H  0.51792427  0.10100185  0.71186176     0.19200
H571        H  0.51707119  0.06285131  0.65735892     0.19200
H572        H  0.49332550  0.22283685  0.69096119     0.15000
C573        C  0.41524692  0.13862278  0.84086061     0.30500
C574        C  0.41199928  0.10708058  0.84827728    -0.35900
C575        C  0.39886632  0.10058329  0.87734370     0.16500
C576        C  0.38877809  0.12338729  0.89761529     0.22300
C577        C  0.39135447  0.15513012  0.88984551    -0.34000
C578        C  0.40527365  0.16171277  0.86091439     0.16400
O579        O  0.43113975  0.14959519  0.81710945    -0.26000
C580        C  0.43176427  0.18022663  0.82179906     0.06200
C581        C  0.41554945  0.18916086  0.84859580    -0.30900
O582        O  0.38054696  0.11189994  0.92497878    -0.22700
C583        C  0.38567935  0.08135784  0.92223767    -0.02700
C584        C  0.39708637  0.07325452  0.89292453    -0.17100
H585        H  0.42123443  0.08890100  0.83340985     0.20900
H586        H  0.38506160  0.17337405  0.90611007     0.19200
H587        H  0.41341412  0.21212228  0.85881500     0.19200
H588        H  0.40528009  0.05076305  0.88495382     0.15000
C589        C  0.50941935  0.17564308  0.33845466     0.30500
C590        C  0.50168345  0.17203411  0.37028189    -0.35900
C591        C  0.51039840  0.14356363  0.38428746     0.16500
C592        C  0.52553776  0.12042487  0.36788541     0.22300
C593        C  0.53372901  0.12424397  0.33653315    -0.34000
C594        C  0.52520165  0.15250487  0.32270805     0.16400
O595        O  0.50005312  0.19823565  0.31954973    -0.26000
C596        C  0.51040151  0.18953958  0.29147774     0.06200
C597        C  0.52630356  0.16131163  0.29233703    -0.30900
O598        O  0.52918073  0.09471325  0.38416740    -0.22700
C599        C  0.51661343  0.10112907  0.41175187    -0.02700
C600        C  0.50463751  0.13138152  0.41334945    -0.17100
H601        H  0.48846797  0.18949065  0.38278899     0.20900
H602        H  0.54471460  0.10574405  0.32335906     0.19200
H603        H  0.53449129  0.14761974  0.27277073     0.19200
H604        H  0.49219734  0.14216849  0.43246035     0.15000
C605        C  0.40998488  0.11423085  0.11635578     0.30500
C606        C  0.40686452  0.14408123  0.12937129    -0.35900
C607        C  0.42381438  0.14970546  0.15673009     0.16500
C608        C  0.44211475  0.12734501  0.17071766     0.22300
C609        C  0.44500504  0.09741987  0.15788559    -0.34000
C610        C  0.42859964  0.09205948  0.13017951     0.16400
O611        O  0.39745664  0.10436206  0.09002908    -0.26000
C612        C  0.40824006  0.07544676  0.08689041     0.06200
C613        C  0.42805431  0.06683121  0.11109730    -0.30900
O614        O  0.45825303  0.13850245  0.19433861    -0.22700
C615        C  0.45051609  0.16851499  0.19531391    -0.02700
C616        C  0.42885201  0.17666565  0.17265926    -0.17100
H617        H  0.39323774  0.16207216  0.11823281     0.20900
H618        H  0.46011712  0.08000766  0.16799323     0.19200
H619        H  0.44053072  0.04513222  0.11402420     0.19200
H620        H  0.41967526  0.19953197  0.16739900     0.15000
C621        C  0.51109687  0.85131509  0.37612601     0.30500
C622        C  0.50169951  0.82230133  0.36370046    -0.35900
C623        C  0.51134516  0.81582374  0.33292525     0.16500
C624        C  0.52896533  0.83657875  0.31585328     0.22300
C625        C  0.53827350  0.86532783  0.32816363    -0.34000
C626        C  0.52852981  0.87180157  0.35855898     0.16400
O627        O  0.50399798  0.86293257  0.40389222    -0.26000
C628        C  0.51691782  0.89126309  0.40369650     0.06200
C629        C  0.53228193  0.89791909  0.37601231    -0.30900
O630        O  0.53249306  0.82790865  0.28670290    -0.22700
C631        C  0.51714872  0.80104434  0.28456333    -0.02700
C632        C  0.50370660  0.79211490  0.31280146    -0.17100
H633        H  0.48707047  0.80640340  0.37668467     0.20900
H634        H  0.55115504  0.88211294  0.31444587     0.19200
H635        H  0.54433696  0.91913953  0.36961080     0.19200
H636        H  0.48781804  0.77297877  0.31693969     0.15000
C637        C  0.45527163  0.84388791  0.14022178     0.30500
C638        C  0.43789171  0.84737690  0.11289369    -0.35900
C639        C  0.43483131  0.87788889  0.10189270     0.16500
C640        C  0.44799931  0.90322991  0.11670625     0.22300
C641        C  0.46511650  0.89977675  0.14427330    -0.34000
C642        C  0.46817239  0.86919909  0.15528468     0.16400
O643        O  0.46128855  0.81741139  0.15432973    -0.26000
C644        C  0.47821742  0.82568280  0.17892463     0.06200
C645        C  0.48324894  0.85778299  0.18065231    -0.30900
O646        O  0.44290024  0.92951033  0.10179099    -0.22700
C647        C  0.42631773  0.92087338  0.07705691    -0.02700
C648        C  0.42024760  0.88903068  0.07618160    -0.17100
H649        H  0.42770341  0.82764340  0.10090815     0.20900
H650        H  0.47554646  0.91947551  0.15611065     0.19200
H651        H  0.49617633  0.87096536  0.19780555     0.19200
H652        H  0.40722690  0.87598798  0.05896644     0.15000
C653        C  0.88925865  0.34315525  0.51001672     0.30500
C654        C  0.88798078  0.31050717  0.50992093    -0.35900
C655        C  0.85873439  0.29702804  0.50479614     0.16500
C656        C  0.83209381  0.31425908  0.50032896     0.22300
C657        C  0.83328357  0.34730608  0.50108015    -0.34000
C658        C  0.86293976  0.36099331  0.50591742     0.16400
O659        O  0.91480535  0.35998269  0.51235323    -0.26000
C660        C  0.90534661  0.38941048  0.50994461     0.06200
C661        C  0.87306655  0.39156577  0.50598667    -0.30900
O662        O  0.80776948  0.29634364  0.49313442    -0.22700
C663        C  0.81926203  0.26734135  0.49289219    -0.02700
C664        C  0.85079393  0.26668567  0.50032516    -0.17100
H665        H  0.90873932  0.29649268  0.51240193     0.20900
H666        H  0.81281523  0.36133120  0.49693887     0.19200
H667        H  0.85928436  0.41239825  0.50277827     0.19200
H668        H  0.86614614  0.24670862  0.50074427     0.15000
C669        C  0.85537624  0.68768358  0.51475851     0.30500
C670        C  0.88483833  0.67690844  0.52340010    -0.35900
C671        C  0.89029958  0.64502197  0.51933505     0.16500
C672        C  0.86830600  0.62465652  0.50778863     0.22300
C673        C  0.83849648  0.63550806  0.49915576    -0.34000
C674        C  0.83297055  0.66776656  0.50316698     0.16400
O675        O  0.84691616  0.71713859  0.51378201    -0.26000
C676        C  0.81841514  0.71662293  0.50176898     0.06200
C677        C  0.80836400  0.68641089  0.49480437    -0.30900
O678        O  0.87929102  0.59583328  0.50501118    -0.22700
C679        C  0.90870078  0.59811096  0.51484217    -0.02700
C680        C  0.91661699  0.62823935  0.52386144    -0.17100
H681        H  0.90275612  0.69260116  0.53167652     0.20900
H682        H  0.82120587  0.62011869  0.48916917     0.19200
H683        H  0.78733460  0.67953474  0.48278839     0.19200
H684        H  0.93887515  0.63670245  0.53209329     0.15000
C685        C  0.16453005  0.29555249  0.50236567     0.30500
C686        C  0.13520437  0.30713236  0.51059666    -0.35900
C687        C  0.13112543  0.33944750  0.50844170     0.16500
C688        C  0.15419052  0.35961802  0.49892016     0.22300
C689        C  0.18403513  0.34792533  0.49083762    -0.34000
C690        C  0.18822099  0.31515104  0.49306552     0.16400
O691        O  0.17207258  0.26580664  0.50064752    -0.26000
C692        C  0.20135285  0.26566928  0.49056206     0.06200
C693        C  0.21277145  0.29583761  0.48551699    -0.30900
O694        O  0.14419833  0.38908751  0.49774935    -0.22700
C695        C  0.11430583  0.38735643  0.50665156    -0.02700
C696        C  0.10534027  0.35694809  0.51347796    -0.17100
H697        H  0.11642103  0.29178322  0.51745341     0.20900
H698        H  0.20243688  0.36313360  0.48275929     0.19200
H699        H  0.23505307  0.30241157  0.47579264     0.19200
H700        H  0.08264909  0.34873710  0.52072498     0.15000
C701        C  0.15758655  0.62258731  0.49853466     0.30500
C702        C  0.18767593  0.63376333  0.49039867    -0.35900
C703        C  0.19158360  0.66669307  0.48970287     0.16500
C704        C  0.16751472  0.68671512  0.49683280     0.22300
C705        C  0.13822788  0.67567800  0.50560527    -0.34000
C706        C  0.13428536  0.64336038  0.50584594     0.16400
O707        O  0.14725939  0.59317306  0.49833676    -0.26000
C708        C  0.11694149  0.59568831  0.50545689     0.06200
C709        C  0.10807330  0.62644711  0.51036057    -0.30900
O710        O  0.17429911  0.71616772  0.49170710    -0.22700
C711        C  0.20339670  0.71591541  0.48134578    -0.02700
C712        C  0.21569281  0.68566088  0.47988358    -0.17100
H713        H  0.20620769  0.61806422  0.48371659     0.20900
H714        H  0.11914149  0.69141600  0.51033204     0.19200
H715        H  0.08509978  0.63529705  0.51566116     0.19200
H716        H  0.23807862  0.67858575  0.47077518     0.15000
C717        C  0.86493784  0.49119288  0.64154318     0.30500
C718        C  0.83460678  0.49907170  0.65128207    -0.35900
C719        C  0.82659795  0.49107784  0.68210394     0.16500
C720        C  0.84709408  0.47620734  0.70179541     0.22300
C721        C  0.87707170  0.46785216  0.69193345    -0.34000
C722        C  0.88515926  0.47623997  0.66142955     0.16400
O723        O  0.87806920  0.49811386  0.61446167    -0.26000
C724        C  0.90717350  0.48769231  0.61724765     0.06200
C725        C  0.91279162  0.47396690  0.64605693    -0.30900
O726        O  0.83707755  0.47542045  0.73077943    -0.22700
C727        C  0.80957688  0.48962296  0.72995929    -0.02700
C728        C  0.80162992  0.49954196  0.70011715    -0.17100
H729        H  0.81893548  0.51198517  0.63643091     0.20900
H730        H  0.89365588  0.45730296  0.70764835     0.19200
H731        H  0.93426472  0.46394384  0.65451634     0.19200
H732        H  0.78239845  0.51437172  0.69354089     0.15000
C733        C  0.84613659  0.56399525  0.87048605     0.30500
C734        C  0.84986872  0.58019757  0.89878377    -0.35900
C735        C  0.87999541  0.57988562  0.91152034     0.16500
C736        C  0.90440970  0.56445064  0.89744075     0.22300
C737        C  0.90067385  0.54841764  0.86936684    -0.34000
C738        C  0.87089914  0.54907829  0.85652243     0.16400
O739        O  0.81998665  0.55998724  0.85486069    -0.26000
C740        C  0.82840272  0.54264034  0.83043668     0.06200
C741        C  0.85986870  0.53529653  0.83039237    -0.30900
O742        O  0.93040267  0.56648811  0.91329611    -0.22700
C743        C  0.92291151  0.58350292  0.93803542    -0.02700
C744        C  0.89177567  0.59272835  0.93815206    -0.17100
H745        H  0.83067423  0.59191300  0.91015509     0.20900
H746        H  0.91970078  0.53609176  0.85836721     0.19200
H747        H  0.87256786  0.52048083  0.81441667     0.19200
H748        H  0.87963428  0.60654587  0.95541962     0.15000
C749        C  0.13859746  0.46690620  0.65402953     0.30500
C750        C  0.14490751  0.45386563  0.68329971    -0.35900
C751        C  0.17256671  0.46351776  0.69770858     0.16500
C752        C  0.19267276  0.48481686  0.68446458     0.22300
C753        C  0.18679092  0.49718961  0.65467893    -0.34000
C754        C  0.15914483  0.48732263  0.64009868     0.16400
O755        O  0.11273586  0.46327408  0.63785786    -0.26000
C756        C  0.11688186  0.48109632  0.61281301     0.06200
C757        C  0.14544434  0.49648549  0.61287221    -0.30900
O758        O  0.21424255  0.49446573  0.70427947    -0.22700
C759        C  0.20810589  0.47875541  0.73035296    -0.02700
C760        C  0.18261933  0.45897871  0.72736051    -0.17100
H761        H  0.12852272  0.43856577  0.69483574     0.20900
H762        H  0.20176967  0.51465150  0.64437088     0.19200
H763        H  0.15407348  0.51323093  0.59612465     0.19200
H764        H  0.17091519  0.44614552  0.74564170     0.15000
C765        C  0.13979405  0.54081968  0.85126225     0.30500
C766        C  0.10799262  0.54286588  0.85860315    -0.35900
C767        C  0.10053814  0.55872740  0.88630375     0.16500
C768        C  0.12281758  0.57186610  0.90532410     0.22300
C769        C  0.15457083  0.57001906  0.89787291    -0.34000
C770        C  0.16201429  0.55395401  0.87035773     0.16400
O771        O  0.15210827  0.52545906  0.82757939    -0.26000
C772        C  0.18268733  0.52856396  0.83165037     0.06200
C773        C  0.19009558  0.54633084  0.85784962    -0.30900
O774        O  0.11092293  0.58364434  0.93113310    -0.22700
C775        C  0.08050611  0.57801294  0.92886202    -0.02700
C776        C  0.07278135  0.56262960  0.90125389    -0.17100
H777        H  0.09037247  0.53194270  0.84427676     0.20900
H778        H  0.17231925  0.57946937  0.91306157     0.19200
H779        H  0.21283350  0.55230854  0.86683626     0.19200
H780        H  0.05026625  0.55386929  0.89414802     0.15000
C781        C  0.83901748  0.48058448  0.33104420     0.30500
C782        C  0.86750433  0.46837090  0.34117598    -0.35900
C783        C  0.87709779  0.47703425  0.37115756     0.16500
C784        C  0.85958308  0.49588757  0.39040503     0.22300
C785        C  0.83079072  0.50797274  0.38032727    -0.34000
C786        C  0.82136963  0.49968312  0.34993683     0.16400
O787        O  0.82851798  0.47937769  0.30223964    -0.26000
C788        C  0.80345006  0.49756125  0.30231472     0.06200
C789        C  0.79785491  0.51083508  0.33149757    -0.30900
O790        O  0.87415029  0.50248622  0.41682236    -0.22700
C791        C  0.90149266  0.48797735  0.41411988    -0.02700
C792        C  0.90448489  0.47184711  0.38616055    -0.17100
H793        H  0.88216040  0.45463589  0.32592901     0.20900
H794        H  0.81751091  0.52405227  0.39450872     0.19200
H795        H  0.78141368  0.52906151  0.33718970     0.19200
H796        H  0.92435195  0.45881053  0.37778633     0.15000
C797        C  0.89080712  0.58917946  0.12927581     0.30500
C798        C  0.86048472  0.59430750  0.14021871    -0.35900
C799        C  0.85265747  0.57940780  0.16822910     0.16500
C800        C  0.87338205  0.56120330  0.18463115     0.22300
C801        C  0.90381724  0.55653911  0.17397750    -0.34000
C802        C  0.91145090  0.57094252  0.14573586     0.16400
O803        O  0.90233336  0.59871579  0.10242415    -0.26000
C804        C  0.93079081  0.58654182  0.10181487     0.06200
C805        C  0.93757660  0.56888325  0.12809228    -0.30900
O806        O  0.86028324  0.54677933  0.20832563    -0.22700
C807        C  0.83067296  0.55557107  0.20703163    -0.02700
C808        C  0.82470338  0.57622551  0.18272388    -0.17100
H809        H  0.84370466  0.60762999  0.12702533     0.20900
H810        H  0.91989720  0.54137635  0.18600960     0.19200
H811        H  0.95842773  0.55566099  0.13296303     0.19200
H812        H  0.80263315  0.58589377  0.17550464     0.15000
C813        C  0.15523967  0.49541834  0.38457636     0.30500
C814        C  0.18594148  0.50244156  0.37531657    -0.35900
C815        C  0.19376552  0.49496157  0.34427359     0.16500
C816        C  0.17279214  0.48115578  0.32422624     0.22300
C817        C  0.14234568  0.47425839  0.33341928    -0.34000
C818        C  0.13445756  0.48222269  0.36394791     0.16400
O819        O  0.14232036  0.50132201  0.41194982    -0.26000
C820        C  0.11288452  0.49214803  0.40833127     0.06200
C821        C  0.10673143  0.48028190  0.37889030    -0.30900
O822        O  0.18308384  0.47969630  0.29548174    -0.22700
C823        C  0.21116099  0.49267475  0.29649365    -0.02700
C824        C  0.21922408  0.50251125  0.32644804    -0.17100
H825        H  0.20210797  0.51406680  0.39076942     0.20900
H826        H  0.12544473  0.46479390  0.31729324     0.19200
H827        H  0.08498168  0.47126389  0.36991179     0.19200
H828        H  0.23894946  0.51665474  0.33322925     0.15000
C829        C  0.16629341  0.56544764  0.15950373     0.30500
C830        C  0.16129059  0.57945037  0.13043570    -0.35900
C831        C  0.13089609  0.57761531  0.11878434     0.16500
C832        C  0.10704998  0.56310349  0.13468960     0.22300
C833        C  0.11189928  0.54957535  0.16398310    -0.34000
C834        C  0.14227352  0.55145935  0.17562724     0.16400
O835        O  0.19341495  0.56177582  0.17331313    -0.26000
C836        C  0.18665179  0.54555913  0.19884388     0.06200
C837        C  0.15506439  0.53874121  0.20155995    -0.30900
O838        O  0.08074708  0.56320867  0.11902268    -0.22700
C839        C  0.08776315  0.57796750  0.09266433    -0.02700
C840        C  0.11864967  0.58762116  0.09133900    -0.17100
H841        H  0.18000011  0.59012695  0.11736195     0.20900
H842        H  0.09348454  0.53768779  0.17643626     0.19200
H843        H  0.14354080  0.52434956  0.21875834     0.19200
H844        H  0.13031801  0.60015283  0.07284193     0.15000
C845        C  0.51789860  0.34425505  0.13198065     0.30500
C846        C  0.52098917  0.31187019  0.13436351    -0.35900
C847        C  0.51549678  0.29899884  0.16381421     0.16500
C848        C  0.50717284  0.31651816  0.18945735     0.22300
C849        C  0.50428987  0.34926637  0.18709549    -0.34000
C850        C  0.51005802  0.36232559  0.15741471     0.16400
O851        O  0.52084201  0.36056707  0.10618146    -0.26000
C852        C  0.51512906  0.38979035  0.11482034     0.06200
C853        C  0.50827775  0.39238753  0.14656678    -0.30900
O854        O  0.50046541  0.29884836  0.21401565    -0.22700
C855        C  0.50481787  0.26972370  0.20377939    -0.02700
C856        C  0.51438356  0.26873420  0.17278520    -0.17100
H857        H  0.52652746  0.29753354  0.11434003     0.20900
H858        H  0.49722671  0.36344374  0.20673321     0.19200
H859        H  0.50200133  0.41314465  0.15947347     0.19200
H860        H  0.51786886  0.24836122  0.15827306     0.15000
C861        C  0.50642479  0.62382977  0.15589769     0.30500
C862        C  0.51925233  0.63957419  0.18186455    -0.35900
C863        C  0.50487922  0.66795483  0.19036705     0.16500
C864        C  0.47956190  0.67951405  0.17445266     0.22300
C865        C  0.46683657  0.66390581  0.14883491    -0.34000
C866        C  0.48134478  0.63611572  0.14015582     0.16400
O867        O  0.51709835  0.59813500  0.14234949    -0.26000
C868        C  0.49867477  0.59446333  0.11755163     0.06200
C869        C  0.47621976  0.61749507  0.11510178    -0.30900
O870        O  0.47165131  0.70760940  0.18359794    -0.22700
C871        C  0.49197176  0.71480667  0.20581036    -0.02700
C872        C  0.51315086  0.69076388  0.21137693    -0.17100
H873        H  0.53974344  0.63104122  0.19369293     0.20900
H874        H  0.44783493  0.67365893  0.13553515     0.19200
H875        H  0.45906277  0.62049151  0.09692060     0.19200
H876        H  0.53339003  0.69127275  0.22632360     0.15000
C877        C  0.49973134  0.62392164  0.86646131     0.30500
C878        C  0.49829643  0.63365131  0.83496304    -0.35900
C879        C  0.49437489  0.66600433  0.82988165     0.16500
C880        C  0.49204172  0.68678159  0.85430050     0.22300
C881        C  0.49351803  0.67723620  0.88533758    -0.34000
C882        C  0.49741395  0.64537368  0.89029464     0.16400
O883        O  0.50270873  0.59499961  0.87713466    -0.26000
C884        C  0.50227127  0.59839986  0.90812636     0.06200
C885        C  0.49904532  0.62930483  0.91734359    -0.30900
O886        O  0.48746802  0.71549487  0.84514702    -0.22700
C887        C  0.48674052  0.71397598  0.81422161    -0.02700
C888        C  0.49114630  0.68357339  0.80316016    -0.17100
H889        H  0.49979295  0.61721019  0.81588092     0.20900
H890        H  0.49136479  0.69362543  0.90442537     0.19200
H891        H  0.49772071  0.63863024  0.94076878     0.19200
H892        H  0.49087649  0.67550100  0.77926868     0.15000
C893        C  0.63494299  0.49420641  0.86376036     0.30500
C894        C  0.64573581  0.50328204  0.83408946    -0.35900
C895        C  0.67725762  0.49699261  0.82759219     0.16500
C896        C  0.69652574  0.48266805  0.84889614     0.22300
C897        C  0.68570461  0.47323950  0.87812717    -0.34000
C898        C  0.65455584  0.47976407  0.88464344     0.16400
O899        O  0.60723986  0.50003208  0.87599658    -0.26000
C900        C  0.60955875  0.48939642  0.90508984     0.06200
C901        C  0.63841344  0.47645731  0.91155879    -0.30900
O902        O  0.72575124  0.48234841  0.83998438    -0.22700
C903        C  0.72555932  0.49619449  0.81232434    -0.02700
C904        C  0.69596715  0.50576213  0.80323448    -0.17100
H905        H  0.63106036  0.51570292  0.81785967     0.20900
H906        H  0.70102610  0.46307096  0.89531326     0.19200
H907        H  0.64665248  0.46696364  0.93339470     0.19200
H908        H  0.68973092  0.51968490  0.78320290     0.15000
C909        C  0.51429850  0.34723219  0.88538664     0.30500
C910        C  0.52054126  0.31552619  0.88039085    -0.35900
C911        C  0.51180248  0.30344030  0.85131817     0.16500
C912        C  0.49765661  0.32117913  0.82861533     0.22300
C913        C  0.49181568  0.35312322  0.83348068    -0.34000
C914        C  0.50074184  0.36533338  0.86261791     0.16400
O915        O  0.51901568  0.36270361  0.91153713    -0.26000
C916        C  0.50875145  0.39134666  0.90556164     0.06200
C917        C  0.49714441  0.39439037  0.87538464    -0.30900
O918        O  0.48812941  0.30415361  0.80468202    -0.22700
C919        C  0.49672876  0.27525980  0.81203663    -0.02700
C920        C  0.51156324  0.27355363  0.84076917    -0.17100
H921        H  0.53049258  0.30099297  0.89838437     0.20900
H922        H  0.48004205  0.36717918  0.81624347     0.19200
H923        H  0.48666835  0.41470068  0.86480947     0.19500
H924        H  0.51846749  0.25281019  0.85330523     0.15000
C925        C  0.37892495  0.47941035  0.86699556     0.30500
C926        C  0.36786373  0.48414525  0.83637005    -0.35900
C927        C  0.33572812  0.47919536  0.83160197     0.16500
C928        C  0.31620098  0.46988666  0.85537552     0.22300
C929        C  0.32728008  0.46445437  0.88549764    -0.34000
C930        C  0.35898206  0.46985872  0.89028855     0.16400
O931        O  0.40727638  0.48548403  0.87771692    -0.26000
C932        C  0.40513589  0.47983785  0.90826719     0.06200
C933        C  0.37559191  0.46998005  0.91711942    -0.30900
O934        O  0.28670826  0.47066782  0.84747451    -0.22700
C935        C  0.28680043  0.48036997  0.81808548    -0.02700
C936        C  0.31676788  0.48571867  0.80669729    -0.17100
H937        H  0.38284483  0.49277993  0.81803700     0.20900
H938        H  0.31179221  0.45836348  0.90443859     0.19200
H939        H  0.36720294  0.46473738  0.94032090     0.19200
H940        H  0.32332448  0.49586588  0.78457831     0.15000
C941        C  0.33610520  0.49295381  0.19285469     0.30500
C942        C  0.36855372  0.49713881  0.18979149    -0.35900
C943        C  0.38138075  0.49054495  0.16020840     0.16500
C944        C  0.36338545  0.48060601  0.13551237     0.22300
C945        C  0.33131184  0.47596380  0.13867578    -0.34000
C946        C  0.31862750  0.48247871  0.16802199     0.16400
O947        O  0.31856113  0.50072338  0.21714928    -0.26000
C948        C  0.28956144  0.49497928  0.20758495     0.06200
C949        C  0.28848041  0.48335989  0.17730161    -0.30900
O950        O  0.37926105  0.47809555  0.10938810    -0.22700
C951        C  0.40807713  0.48625287  0.11712987    -0.02700
C952        C  0.41092360  0.49405897  0.14859491    -0.17100
H953        H  0.38258103  0.50612846  0.20869936     0.20900
H954        H  0.31697351  0.46898430  0.11915712     0.19200
H955        H  0.26810896  0.47851977  0.16329652     0.19200
H956        H  0.43135175  0.50245049  0.16070596     0.15000
C957        C  0.63752728  0.50220160  0.15745527     0.30500
C958        C  0.64655665  0.50299852  0.18919743    -0.35900
C959        C  0.67894638  0.50345285  0.19509479     0.16500
C960        C  0.70040735  0.50304431  0.17120631     0.22300
C961        C  0.69150661  0.50240960  0.13994126    -0.34000
C962        C  0.65961538  0.50215952  0.13416579     0.16400
O963        O  0.60881263  0.50144635  0.14603850    -0.26000
C964        C  0.61299545  0.50100032  0.11512787     0.06200
C965        C  0.64417477  0.50170045  0.10668940    -0.30900
O966        O  0.72912692  0.50556343  0.18100740    -0.22700
C967        C  0.72688139  0.50781823  0.21180835    -0.02700
C968        C  0.69603575  0.50628032  0.22216864    -0.17100
H969        H  0.62962484  0.50361775  0.20785402     0.20900
H970        H  0.70844422  0.50269544  0.12126722     0.19200
H971        H  0.65411826  0.50138629  0.08350453     0.19200
H972        H  0.68742443  0.50911138  0.24569783     0.15000
loop_ 
_geom_bond_atom_site_label_1 
_geom_bond_atom_site_label_2 
_geom_bond_distance 
_geom_bond_site_symmetry_2 
_ccdc_geom_bond_type 
O1          Zr13   2.445       .  S
O1            C3   1.289       .  A
O2          Zr39   2.449       .  S
O2            C3   1.291       .  A
C3          C852   1.481       .  S
O4          Zr16   2.444   1_556  S
O4            C6   1.290       .  A
O5          Zr40   2.442       .  S
O5            C6   1.289       .  A
C6          C900   1.474       .  S
O7          Zr16   2.449       .  S
O7            C9   1.291       .  A
O8          Zr39   2.447       .  S
O8            C9   1.289       .  A
C9          C964   1.484       .  S
O10         Zr13   2.446   1_556  S
O10          C12   1.289       .  A
O11         Zr40   2.452       .  S
O11          C12   1.291       .  A
C12         C916   1.481       .  S
Zr13         O14   2.435       .  S
Zr13         O15   2.436       .  S
Zr13         O19   2.373       .  S
Zr13         O20   2.361   1_554  S
Zr13         O43   2.373   1_554  S
Zr13         O45   2.368       .  S
O14          H57   0.990       .  S
O15          H56   0.990   1_554  S
O15          H60   0.990       .  S
Zr16         O17   2.435       .  S
Zr16         O18   2.436       .  S
Zr16         O20   2.376   1_554  S
Zr16         O19   2.373       .  S
Zr16         O44   2.368       .  S
Zr16         O46   2.377   1_554  S
O17          H58   0.990   1_554  S
O17          H61   0.990       .  S
O18          H51   0.990   1_554  S
O19         Zr39   2.393       .  S
O20         Zr40   2.399       .  S
O20          H47   0.964       .  S
O21         Zr33   2.442   1_556  S
O21          C23   1.289       .  A
O22         Zr40   2.454       .  S
O22          C23   1.290       .  A
C23         C932   1.486       .  S
O24         Zr36   2.449       .  S
O24          C26   1.290       .  A
O25         Zr39   2.441       .  S
O25          C26   1.288       .  A
C26         C868   1.476       .  S
O27         Zr36   2.437   1_556  S
O27          C29   1.288       .  A
O28         Zr40   2.457       .  S
O28          C29   1.291       .  A
C29         C884   1.484       .  S
O30         Zr33   2.442       .  S
O30          C32   1.288       .  A
O31         Zr39   2.445       .  S
O31          C32   1.290       .  A
C32         C951   1.478       .  S
Zr33         O34   2.437       .  S
Zr33         O35   2.434       .  S
Zr33         O41   2.370   1_554  S
Zr33         O42   2.372       .  S
Zr33         O45   2.372       .  S
Zr33         O43   2.367   1_554  S
O34          H54   0.990       .  S
O34          H59   0.990   1_554  S
O35          H55   0.990       .  S
Zr36         O37   2.435       .  S
Zr36         O38   2.437       .  S
Zr36         O42   2.374       .  S
Zr36         O41   2.380   1_554  S
Zr36         O46   2.371   1_554  S
Zr36         O44   2.362       .  S
O37          H53   0.990   1_554  S
O38          H52   0.990       .  S
O38          H62   0.990       .  S
Zr39         O42   2.396       .  S
Zr39         O44   2.390       .  S
Zr39         O45   2.393       .  S
Zr40         O41   2.396       .  S
Zr40         O43   2.387       .  S
Zr40         O46   2.399       .  S
O41          H49   0.965       .  S
O44          H48   0.965       .  S
O45          H50   0.964       .  S
C63         C823   1.477       .  S
C63          C64   1.400       .  A
C63          C68   1.415       .  A
C64          C65   1.393       .  A
C64          H69   1.084       .  S
C65         C836   1.478       .  S
C65          C66   1.398       .  A
C66          C67   1.408       .  A
C66          H70   1.084       .  S
C67         C948   1.487       .  S
C67          C68   1.417       .  A
C68          H71   1.083       .  S
C72         C788   1.480       .  S
C72          C73   1.404       .  A
C72          C77   1.419       .  A
C73          C74   1.395       .  A
C73          H78   1.085       .  S
C74         C807   1.477       .  S
C74          C75   1.395       .  A
C75          C76   1.404       .  A
C75          H79   1.083       .  S
C76         C967   1.488       .  S
C76          C77   1.417       .  A
C77          H80   1.083       .  S
C81         C935   1.481       .  S
C81          C82   1.411       .  A
C81          C86   1.405       .  A
C82          C83   1.411       .  A
C82          H87   1.083       .  S
C83         C759   1.478       .  S
C83          C84   1.406       .  A
C84          C85   1.399       .  A
C84          H88   1.084       .  S
C85         C772   1.485       .  S
C85          C86   1.401       .  A
C86          H89   1.083       .  S
C90         C903   1.474       .  S
C90          C91   1.412       .  A
C90          C95   1.403       .  A
C91          C92   1.411       .  A
C91          H96   1.083       .  S
C92         C727   1.479       .  S
C92          C93   1.402       .  A
C93          C94   1.400       .  A
C93          H97   1.084       .  S
C94         C740   1.478       .  S
C94          C95   1.396       .  A
C95          H98   1.085       .  S
N99         C104   1.351       .  A
N99         C103   1.352   1_455  A
N99         H131   1.040       .  S
N100        C107   1.352       .  A
N100        C108   1.351   1_554  A
N101        C106   1.356       .  A
N101        C105   1.352   1_455  A
N101        H132   1.040       .  S
N102        C109   1.353       .  A
N102        C110   1.354   1_554  A
C103        C111   1.386       .  A
C103        C119   1.411       .  A
C104        C120   1.411       .  A
C104        C112   1.388       .  A
C105        C113   1.388       .  A
C105        C122   1.417       .  A
C106        C121   1.419       .  A
C106        C114   1.387       .  A
C107        C119   1.409       .  A
C107        C115   1.384       .  A
C108        C122   1.413       .  A
C108        C116   1.388   1_556  A
C109        C117   1.385       .  A
C109        C120   1.415       .  A
C110        C118   1.387       .  A
C110        C121   1.417       .  A
C111        C112   1.374   1_655  A
C111        H123   1.082       .  S
C112        H124   1.082       .  S
C113        C114   1.379   1_655  A
C113        H125   1.083       .  S
C114        H126   1.082       .  S
C115        C116   1.373       .  A
C115        H127   1.082       .  S
C116        H128   1.081   1_554  S
C117        C118   1.372   1_554  A
C117        H129   1.082       .  S
C118        H130   1.081       .  S
C119        C804   1.484       .  S
C120        C839   1.486       .  S
C121        C775   1.498       .  S
C122        C743   1.484       .  S
O133       Zr145   2.445       .  S
O133        C135   1.290       .  A
O134       Zr171   2.423       .  S
O134        C135   1.285       .  A
C135        C820   1.469       .  S
O136       Zr148   2.437   1_655  S
O136        C138   1.289       .  A
O137       Zr172   2.459       .  S
O137        C138   1.292       .  A
C138        C679   1.484       .  S
O139       Zr148   2.451       .  S
O139        C141   1.291       .  A
O140       Zr171   2.471       .  S
O140        C141   1.293       .  A
C141        C708   1.498       .  S
O142       Zr145   2.467   1_655  S
O142        C144   1.293       .  A
O143       Zr172   2.432       .  S
O143        C144   1.287       .  A
C144        C791   1.482       .  S
Zr145       O146   2.435       .  S
Zr145       O147   2.434       .  S
Zr145       O151   2.378       .  S
Zr145       O152   2.364   1_455  S
Zr145       O175   2.368   1_455  S
Zr145       O177   2.375       .  S
O146        H189   0.990       .  S
O147        H188   0.990   1_455  S
O147        H192   0.990   1_455  S
Zr148       O149   2.437       .  S
Zr148       O150   2.437       .  S
Zr148       O152   2.377   1_455  S
Zr148       O151   2.365       .  S
Zr148       O176   2.375       .  S
Zr148       O178   2.379   1_455  S
O149        H190   0.990       .  S
O149        H193   0.990       .  S
O150        H183   0.990       .  S
O151       Zr171   2.396       .  S
O152       Zr172   2.398       .  S
O152        H179   0.966       .  S
O153       Zr165   2.449   1_655  S
O153        C155   1.290       .  A
O154       Zr172   2.470       .  S
O154        C155   1.294       .  A
C155        C660   1.492       .  S
O156       Zr168   2.450       .  S
O156        C158   1.289       .  A
O157       Zr171   2.450       .  S
O157        C158   1.291       .  A
C158        C756   1.479       .  S
O159       Zr168   2.456   1_655  S
O159        C161   1.291       .  A
O160       Zr172   2.447       .  S
O160        C161   1.290       .  A
C161        C724   1.484       .  S
O162       Zr165   2.456       .  S
O162        C164   1.292       .  A
O163       Zr171   2.472       .  S
O163        C164   1.294       .  A
C164        C695   1.500       .  S
Zr165       O166   2.436       .  S
Zr165       O167   2.434       .  S
Zr165       O173   2.371   1_455  S
Zr165       O174   2.369       .  S
Zr165       O177   2.368       .  S
Zr165       O175   2.374   1_455  S
O166        H186   0.990   1_455  S
O166        H191   0.990       .  S
O167        H187   0.990       .  S
Zr168       O169   2.433       .  S
Zr168       O170   2.435       .  S
Zr168       O174   2.378       .  S
Zr168       O173   2.374   1_455  S
Zr168       O178   2.372   1_455  S
Zr168       O176   2.380       .  S
O169        H185   0.990       .  S
O170        H184   0.990   1_455  S
O170        H194   0.990       .  S
Zr171       O174   2.396       .  S
Zr171       O176   2.395       .  S
Zr171       O177   2.402       .  S
Zr172       O173   2.397       .  S
Zr172       O175   2.395       .  S
Zr172       O178   2.394       .  S
O173        H181   0.966       .  S
O176        H180   0.965       .  S
O177        H182   0.965       .  S
C195        C631   1.481       .  S
C195        C196   1.416       .  A
C195        C200   1.404       .  A
C196        C197   1.415       .  A
C196        H201   1.083       .  S
C197        C871   1.485       .  S
C197        C198   1.404       .  A
C198        C199   1.396       .  A
C198        H202   1.084       .  S
C199        C644   1.480       .  S
C199        C200   1.396       .  A
C200        H203   1.082       .  S
C204        C596   1.486       .  S
C204        C205   1.405       .  A
C204        C209   1.419       .  A
C205        C206   1.396       .  A
C205        H210   1.085       .  S
C206        C615   1.477       .  S
C206        C207   1.398       .  A
C207        C208   1.405       .  A
C207        H211   1.084       .  S
C208        C855   1.491       .  S
C208        C209   1.418       .  A
C209        H212   1.083       .  S
C213        C919   1.476       .  S
C213        C214   1.413       .  A
C213        C218   1.404       .  A
C214        C215   1.411       .  A
C214        H219   1.083       .  S
C215        C567   1.482       .  S
C215        C216   1.404       .  A
C216        C217   1.400       .  A
C216        H220   1.084       .  S
C217        C580   1.483       .  S
C217        C218   1.400       .  A
C218        H221   1.082       .  S
C222        C887   1.490       .  S
C222        C223   1.403       .  A
C222        C227   1.415       .  A
C223        C224   1.398       .  A
C223        H228   1.081       .  S
C224        C548   1.484       .  S
C224        C225   1.396       .  A
C225        C226   1.407       .  A
C225        H229   1.085       .  S
C226        C535   1.479       .  S
C226        C227   1.418       .  A
C227        H230   1.083       .  S
N231        C236   1.350   1_565  A
N231        C235   1.352       .  A
N231        H263   1.042   1_565  S
N232        C239   1.349   1_556  A
N232        C240   1.348       .  A
N233        C238   1.351       .  A
N233        C237   1.353   1_545  A
N233        H264   1.042       .  S
N234        C241   1.354       .  A
N234        C242   1.354   1_554  A
C235        C243   1.386       .  A
C235        C251   1.409       .  A
C236        C252   1.411       .  A
C236        C244   1.387       .  A
C237        C245   1.384       .  A
C237        C254   1.409       .  A
C238        C253   1.415       .  A
C238        C246   1.388       .  A
C239        C251   1.409       .  A
C239        C247   1.387       .  A
C240        C254   1.408       .  A
C240        C248   1.386       .  A
C241        C249   1.384       .  A
C241        C252   1.416       .  A
C242        C250   1.388       .  A
C242        C253   1.419       .  A
C243        C244   1.374   1_565  A
C243        H255   1.082       .  S
C244        H256   1.082       .  S
C245        C246   1.376   1_565  A
C245        H257   1.082       .  S
C246        H258   1.082       .  S
C247        C248   1.373   1_554  A
C247        H259   1.081       .  S
C248        H260   1.082       .  S
C249        C250   1.376   1_554  A
C249        H261   1.081       .  S
C250        H262   1.080       .  S
C251        C647   1.482       .  S
C252        C612   1.492       .  S
C253        C583   1.496       .  S
C254        C551   1.480       .  S
C265        C711   1.492       .  S
C265        C266   1.415       .  A
C265        C270   1.418       .  A
C266        C267   1.403       .  A
C266        H271   1.084       .  S
C267        C519   1.492       .  S
C267        C268   1.399       .  A
C268        C269   1.402       .  A
C268        H272   1.083       .  S
C269        C503   1.490       .  S
C269        C270   1.415       .  A
C270        H273   1.083       .  S
C274        C471   1.486       .  S
C274        C275   1.420       .  A
C274        C279   1.404       .  A
C275        C276   1.419       .  A
C275        H280   1.083       .  S
C276        C663   1.500       .  S
C276        C277   1.410       .  A
C277        C278   1.402       .  A
C277        H281   1.083       .  S
C278        C484   1.481       .  S
C278        C279   1.397       .  A
C279        H282   1.085       .  S
C283        C439   1.496       .  S
C283        C284   1.418       .  A
C283        C288   1.409       .  A
C284        C285   1.420       .  A
C284        H289   1.083       .  S
C285        C692   1.494       .  S
C285        C286   1.408       .  A
C286        C287   1.402       .  A
C286        H290   1.084       .  S
C287        C452   1.489       .  S
C287        C288   1.403       .  A
C288        H291   1.083       .  S
C292        C676   1.485       .  S
C292        C293   1.417       .  A
C292        C297   1.405       .  A
C293        C294   1.417       .  A
C293        H298   1.083       .  S
C294        C407   1.489       .  S
C294        C295   1.405       .  A
C295        C296   1.400       .  A
C295        H299   1.084       .  S
C296        C420   1.482       .  S
C296        C297   1.400       .  A
C297        H300   1.084       .  S
N301        C306   1.354   1_455  A
N301        C305   1.353       .  A
N301        H333   1.042       .  S
N302        C309   1.356       .  A
N302        C310   1.354   1_565  A
N303        C308   1.357   1_455  A
N303        C307   1.355       .  A
N303        H334   1.042       .  S
N304        C311   1.350       .  A
N304        C312   1.349   1_565  A
C305        C313   1.387       .  A
C305        C321   1.414       .  A
C306        C322   1.414       .  A
C306        C314   1.387       .  A
C307        C315   1.388       .  A
C307        C324   1.421       .  A
C308        C323   1.417       .  A
C308        C316   1.386       .  A
C309        C321   1.417       .  A
C309        C317   1.386       .  A
C310        C324   1.416       .  A
C310        C318   1.386       .  A
C311        C319   1.386       .  A
C311        C322   1.409       .  A
C312        C320   1.386       .  A
C312        C323   1.408       .  A
C313        C314   1.372   1_455  A
C313        H325   1.081       .  S
C314        H326   1.081       .  S
C315        C316   1.377   1_455  A
C315        H327   1.081       .  S
C316        H328   1.082       .  S
C317        C318   1.373   1_565  A
C317        H329   1.082       .  S
C318        H330   1.082       .  S
C319        C320   1.372   1_565  A
C319        H331   1.082       .  S
C320        H332   1.083       .  S
C321        C516   1.495       .  S
C322        C423   1.488       .  S
C323        C487   1.488       .  S
C324        C455   1.494       .  S
O335       Zr347   2.441       .  S
O335        C337   1.288       .  A
O336       Zr373   2.457       .  S
O336        C337   1.292       .  A
C337        C500   1.481       .  S
O338       Zr350   2.450   1_545  S
O338        C340   1.289       .  A
O339       Zr374   2.448       .  S
O339        C340   1.290       .  A
C340        C599   1.481       .  S
O341       Zr350   2.446       .  S
O341        C343   1.289       .  A
O342       Zr373   2.440       .  S
O342        C343   1.288       .  A
C343        C628   1.477       .  S
O344       Zr347   2.449   1_545  S
O344        C346   1.289       .  A
O345       Zr374   2.456       .  S
O345        C346   1.291       .  A
C346        C436   1.487       .  S
Zr347       O348   2.435       .  S
Zr347       O349   2.438       .  S
Zr347       O353   2.374       .  S
Zr347       O354   2.370   1_565  S
Zr347       O377   2.370   1_565  S
Zr347       O379   2.376       .  S
O348        H391   0.990   1_565  S
O349        H390   0.990       .  S
O349        H394   0.990       .  S
Zr350       O351   2.438       .  S
Zr350       O352   2.436       .  S
Zr350       O354   2.380   1_565  S
Zr350       O353   2.375       .  S
Zr350       O378   2.376       .  S
Zr350       O380   2.368   1_565  S
O351        H392   0.990   1_565  S
O351        H395   0.990       .  S
O352        H385   0.990       .  S
O353       Zr373   2.390       .  S
O354       Zr374   2.393       .  S
O354        H381   0.967       .  S
O355       Zr367   2.464   1_545  S
O355        C357   1.294       .  A
O356       Zr374   2.439       .  S
O356        C357   1.288       .  A
C357        C564   1.484       .  S
O358       Zr370   2.452       .  S
O358        C360   1.290       .  A
O359       Zr373   2.469       .  S
O359        C360   1.295       .  A
C360        C404   1.491       .  S
O361       Zr370   2.459   1_545  S
O361        C363   1.292       .  A
O362       Zr374   2.450       .  S
O362        C363   1.290       .  A
C363        C468   1.488       .  S
O364       Zr367   2.465       .  S
O364        C366   1.293       .  A
O365       Zr373   2.435       .  S
O365        C366   1.287       .  A
C366        C532   1.481       .  S
Zr367       O368   2.434       .  S
Zr367       O369   2.437       .  S
Zr367       O375   2.375   1_565  S
Zr367       O376   2.368       .  S
Zr367       O379   2.374       .  S
Zr367       O377   2.376   1_565  S
O368        H388   0.990   1_565  S
O368        H393   0.990       .  S
O369        H389   0.990       .  S
Zr370       O371   2.434       .  S
Zr370       O372   2.436       .  S
Zr370       O376   2.372       .  S
Zr370       O375   2.367   1_565  S
Zr370       O380   2.373   1_565  S
Zr370       O378   2.377       .  S
O371        H387   0.990       .  S
O372        H386   0.990   1_565  S
O372        H396   0.990       .  S
Zr373       O376   2.392       .  S
Zr373       O378   2.398       .  S
Zr373       O379   2.399       .  S
Zr374       O375   2.401       .  S
Zr374       O377   2.393       .  S
Zr374       O380   2.391       .  S
O375        H383   0.963       .  S
O378        H382   0.965       .  S
O379        H384   0.963       .  S
C397        C402   1.379       .  A
C397        C398   1.405       .  A
C397        O403   1.322       .  A
C398        C399   1.405       .  A
C398        H409   1.082       .  S
C399        C408   1.361       .  A
C399        C400   1.379       .  A
C400        C401   1.414       .  A
C400        O406   1.330       .  A
C401        C402   1.414       .  A
C401        H410   1.082       .  S
C402        C405   1.375       .  A
O403        C404   1.334       .  A
C404        C405   1.398       .  A
C405        H411   1.082       .  S
O406        C407   1.337       .  A
C407        C408   1.392       .  A
C408        H412   1.083       .  S
C413        C418   1.380       .  A
C413        C414   1.402       .  A
C413        O419   1.317       .  A
C414        C415   1.401       .  A
C414        H425   1.082       .  S
C415        C424   1.359       .  A
C415        C416   1.379       .  A
C416        C417   1.404       .  A
C416        O422   1.319       .  A
C417        C418   1.404       .  A
C417        H426   1.082       .  S
C418        C421   1.363       .  A
O419        C420   1.331       .  A
C420        C421   1.395       .  A
C421        H427   1.082       .  S
O422        C423   1.332       .  A
C423        C424   1.393       .  A
C424        H428   1.083       .  S
C429        C434   1.380       .  A
C429        C430   1.401       .  A
C429        O435   1.319       .  A
C430        C431   1.401       .  A
C430        H441   1.082       .  S
C431        C440   1.358       .  A
C431        C432   1.379       .  A
C432        C433   1.416       .  A
C432        O438   1.332       .  A
C433        C434   1.416       .  A
C433        H442   1.082       .  S
C434        C437   1.377       .  A
O435        C436   1.331       .  A
C436        C437   1.399       .  A
C437        H443   1.082       .  S
O438        C439   1.339       .  A
C439        C440   1.393       .  A
C440        H444   1.083       .  S
C445        C450   1.379       .  A
C445        C446   1.408       .  A
C445        O451   1.322       .  A
C446        C447   1.407       .  A
C446        H457   1.082       .  S
C447        C456   1.368       .  A
C447        C448   1.379       .  A
C448        C449   1.403       .  A
C448        O454   1.317       .  A
C449        C450   1.403       .  A
C449        H458   1.082       .  S
C450        C453   1.362       .  A
O451        C452   1.334       .  A
C452        C453   1.395       .  A
C453        H459   1.082       .  S
O454        C455   1.332       .  A
C455        C456   1.396       .  A
C456        H460   1.082       .  S
C461        C466   1.379       .  A
C461        C462   1.415       .  A
C461        O467   1.329       .  A
C462        C463   1.414       .  A
C462        H473   1.082       .  S
C463        C472   1.375       .  A
C463        C464   1.379       .  A
C464        C465   1.404       .  A
C464        O470   1.319       .  A
C465        C466   1.403       .  A
C465        H474   1.082       .  S
C466        C469   1.363       .  A
O467        C468   1.337       .  A
C468        C469   1.392       .  A
C469        H475   1.083       .  S
O470        C471   1.332       .  A
C471        C472   1.398       .  A
C472        H476   1.082       .  S
C477        C482   1.380       .  A
C477        C478   1.404       .  A
C477        O483   1.321       .  A
C478        C479   1.404       .  A
C478        H489   1.083       .  S
C479        C488   1.359       .  A
C479        C480   1.381       .  A
C480        C481   1.403       .  A
C480        O486   1.321       .  A
C481        C482   1.403       .  A
C481        H490   1.082       .  S
C482        C485   1.361       .  A
O483        C484   1.333       .  A
C484        C485   1.392       .  A
C485        H491   1.082       .  S
O486        C487   1.331       .  A
C487        C488   1.394       .  A
C488        H492   1.083       .  S
C493        C498   1.380       .  A
C493        C494   1.399       .  A
C493        O499   1.316       .  A
C494        C495   1.400       .  A
C494        H505   1.083       .  S
C495        C504   1.355       .  A
C495        C496   1.379       .  A
C496        C497   1.414       .  A
C496        O502   1.330       .  A
C497        C498   1.414       .  A
C497        H506   1.082       .  S
C498        C501   1.375       .  A
O499        C500   1.330       .  A
C500        C501   1.398       .  A
C501        H507   1.082       .  S
O502        C503   1.336       .  A
C503        C504   1.393       .  A
C504        H508   1.083       .  S
C509        C514   1.380       .  A
C509        C510   1.398       .  A
C509        O515   1.317       .  A
C510        C511   1.399       .  A
C510        H521   1.082       .  S
C511        C520   1.354       .  A
C511        C512   1.378       .  A
C512        C513   1.410       .  A
C512        O518   1.327       .  A
C513        C514   1.411       .  A
C513        H522   1.082       .  S
C514        C517   1.367       .  A
O515        C516   1.329       .  A
C516        C517   1.399       .  A
C517        H523   1.082       .  S
O518        C519   1.336       .  A
C519        C520   1.394       .  A
C520        H524   1.082       .  S
C525        C530   1.379       .  A
C525        C526   1.413       .  A
C525        O531   1.328       .  A
C526        C527   1.413       .  A
C526        H537   1.082       .  S
C527        C536   1.373       .  A
C527        C528   1.380       .  A
C528        C529   1.400       .  A
C528        O534   1.316       .  A
C529        C530   1.399       .  A
C529        H538   1.082       .  S
C530        C533   1.358       .  A
O531        C532   1.337       .  A
C532        C533   1.388       .  A
C533        H539   1.083       .  S
O534        C535   1.330       .  A
C535        C536   1.397       .  A
C536        H540   1.082       .  S
C541        C546   1.379       .  A
C541        C542   1.406       .  A
C541        O547   1.322       .  A
C542        C543   1.407       .  A
C542        H553   1.082       .  S
C543        C552   1.364       .  A
C543        C544   1.381       .  A
C544        C545   1.397       .  A
C544        O550   1.315       .  A
C545        C546   1.397       .  A
C545        H554   1.082       .  S
C546        C549   1.352       .  A
O547        C548   1.334       .  A
C548        C549   1.393       .  A
C549        H555   1.081       .  S
O550        C551   1.328       .  A
C551        C552   1.393       .  A
C552        H556   1.082       .  S
C557        C562   1.378       .  A
C557        C558   1.416       .  A
C557        O563   1.328       .  A
C558        C559   1.415       .  A
C558        H569   1.082       .  S
C559        C568   1.377       .  A
C559        C560   1.380       .  A
C560        C561   1.398       .  A
C560        O566   1.313       .  A
C561        C562   1.396       .  A
C561        H570   1.082       .  S
C562        C565   1.357       .  A
O563        C564   1.338       .  A
C564        C565   1.389       .  A
C565        H571   1.083       .  S
O566        C567   1.328       .  A
C567        C568   1.398       .  A
C568        H572   1.082       .  S
C573        C578   1.380       .  A
C573        C574   1.397       .  A
C573        O579   1.314       .  A
C574        C575   1.397       .  A
C574        H585   1.082       .  S
C575        C584   1.353       .  A
C575        C576   1.378       .  A
C576        C577   1.407       .  A
C576        O582   1.322       .  A
C577        C578   1.407       .  A
C577        H586   1.082       .  S
C578        C581   1.364       .  A
O579        C580   1.329       .  A
C580        C581   1.398       .  A
C581        H587   1.082       .  S
O582        C583   1.334       .  A
C583        C584   1.394       .  A
C584        H588   1.082       .  S
C589        C594   1.379       .  A
C589        C590   1.414       .  A
C589        O595   1.329       .  A
C590        C591   1.414       .  A
C590        H601   1.082       .  S
C591        C600   1.376       .  A
C591        C592   1.380       .  A
C592        C593   1.401       .  A
C592        O598   1.317       .  A
C593        C594   1.400       .  A
C593        H602   1.082       .  S
C594        C597   1.359       .  A
O595        C596   1.337       .  A
C596        C597   1.392       .  A
C597        H603   1.083       .  S
O598        C599   1.330       .  A
C599        C600   1.398       .  A
C600        H604   1.082       .  S
C605        C610   1.379       .  A
C605        C606   1.403       .  A
C605        O611   1.321       .  A
C606        C607   1.403       .  A
C606        H617   1.082       .  S
C607        C616   1.360       .  A
C607        C608   1.380       .  A
C608        C609   1.402       .  A
C608        O614   1.318       .  A
C609        C610   1.402       .  A
C609        H618   1.083       .  S
C610        C613   1.356       .  A
O611        C612   1.331       .  A
C612        C613   1.395       .  A
C613        H619   1.083       .  S
O614        C615   1.331       .  A
C615        C616   1.393       .  A
C616        H620   1.082       .  S
C621        C626   1.379       .  A
C621        C622   1.412       .  A
C621        O627   1.327       .  A
C622        C623   1.411       .  A
C622        H633   1.082       .  S
C623        C632   1.373       .  A
C623        C624   1.380       .  A
C624        C625   1.399       .  A
C624        O630   1.313       .  A
C625        C626   1.397       .  A
C625        H634   1.083       .  S
C626        C629   1.356       .  A
O627        C628   1.336       .  A
C628        C629   1.389       .  A
C629        H635   1.083       .  S
O630        C631   1.330       .  A
C631        C632   1.396       .  A
C632        H636   1.082       .  S
C637        C642   1.379       .  A
C637        C638   1.400       .  A
C637        O643   1.314       .  A
C638        C639   1.399       .  A
C638        H649   1.082       .  S
C639        C648   1.358       .  A
C639        C640   1.380       .  A
C640        C641   1.403       .  A
C640        O646   1.316       .  A
C641        C642   1.402       .  A
C641        H650   1.082       .  S
C642        C645   1.360       .  A
O643        C644   1.331       .  A
C644        C645   1.396       .  A
C645        H651   1.082       .  S
O646        C647   1.332       .  A
C647        C648   1.391       .  A
C648        H652   1.082       .  S
C653        C658   1.379       .  A
C653        C654   1.402       .  A
C653        O659   1.318       .  A
C654        C655   1.401       .  A
C654        H665   1.082       .  S
C655        C664   1.359       .  A
C655        C656   1.378       .  A
C656        C657   1.419       .  A
C656        O662   1.333       .  A
C657        C658   1.419       .  A
C657        H666   1.082       .  S
C658        C661   1.381       .  A
O659        C660   1.331       .  A
C660        C661   1.402       .  A
C661        H667   1.082       .  S
O662        C663   1.339       .  A
C663        C664   1.394       .  A
C664        H668   1.083       .  S
C669        C674   1.380       .  A
C669        C670   1.400       .  A
C669        O675   1.316       .  A
C670        C671   1.399       .  A
C670        H681   1.082       .  S
C671        C680   1.357       .  A
C671        C672   1.379       .  A
C672        C673   1.415       .  A
C672        O678   1.329       .  A
C673        C674   1.415       .  A
C673        H682   1.082       .  S
C674        C677   1.376       .  A
O675        C676   1.330       .  A
C676        C677   1.398       .  A
C677        H683   1.082       .  S
O678        C679   1.337       .  A
C679        C680   1.391       .  A
C680        H684   1.083       .  S
C685        C690   1.379       .  A
C685        C686   1.401       .  A
C685        O691   1.319       .  A
C686        C687   1.401       .  A
C686        H697   1.082       .  S
C687        C696   1.357       .  A
C687        C688   1.378       .  A
C688        C689   1.421       .  A
C688        O694   1.337       .  A
C689        C690   1.421       .  A
C689        H698   1.082       .  S
C690        C693   1.381       .  A
O691        C692   1.331       .  A
C692        C693   1.401       .  A
C693        H699   1.082       .  S
O694        C695   1.343       .  A
C695        C696   1.391       .  A
C696        H700   1.083       .  S
C701        C706   1.377       .  A
C701        C702   1.423       .  A
C701        O707   1.337       .  A
C702        C703   1.423       .  A
C702        H713   1.082       .  S
C703        C712   1.383       .  A
C703        C704   1.380       .  A
C704        C705   1.396       .  A
C704        O710   1.315       .  A
C705        C706   1.397       .  A
C705        H714   1.082       .  S
C706        C709   1.354       .  A
O707        C708   1.343       .  A
C708        C709   1.390       .  A
C709        H715   1.083       .  S
O710        C711   1.328       .  A
C711        C712   1.403       .  A
C712        H716   1.082       .  S
C717        C722   1.379       .  A
C717        C718   1.411       .  A
C717        O723   1.326       .  A
C718        C719   1.410       .  A
C718        H729   1.082       .  S
C719        C728   1.371       .  A
C719        C720   1.380       .  A
C720        C721   1.403       .  A
C720        O726   1.317       .  A
C721        C722   1.402       .  A
C721        H730   1.082       .  S
C722        C725   1.362       .  A
O723        C724   1.335       .  A
C724        C725   1.392       .  A
C725        H731   1.083       .  S
O726        C727   1.332       .  A
C727        C728   1.394       .  A
C728        H732   1.082       .  S
C733        C738   1.379       .  A
C733        C734   1.408       .  A
C733        O739   1.321       .  A
C734        C735   1.407       .  A
C734        H745   1.082       .  S
C735        C744   1.366       .  A
C735        C736   1.380       .  A
C736        C737   1.396       .  A
C736        O742   1.312       .  A
C737        C738   1.395       .  A
C737        H746   1.082       .  S
C738        C741   1.353       .  A
O739        C740   1.335       .  A
C740        C741   1.390       .  A
C741        H747   1.082       .  S
O742        C743   1.327       .  A
C743        C744   1.397       .  A
C744        H748   1.082       .  S
C749        C754   1.380       .  A
C749        C750   1.403       .  A
C749        O755   1.321       .  A
C750        C751   1.403       .  A
C750        H761   1.082       .  S
C751        C760   1.359       .  A
C751        C752   1.380       .  A
C752        C753   1.409       .  A
C752        O758   1.325       .  A
C753        C754   1.409       .  A
C753        H762   1.082       .  S
C754        C757   1.368       .  A
O755        C756   1.332       .  A
C756        C757   1.394       .  A
C757        H763   1.082       .  S
O758        C759   1.333       .  A
C759        C760   1.391       .  A
C760        H764   1.083       .  S
C765        C770   1.379       .  A
C765        C766   1.406       .  A
C765        O771   1.321       .  A
C766        C767   1.406       .  A
C766        H777   1.082       .  S
C767        C776   1.365       .  A
C767        C768   1.379       .  A
C768        C769   1.404       .  A
C768        O774   1.320       .  A
C769        C770   1.403       .  A
C769        H778   1.082       .  S
C770        C773   1.361       .  A
O771        C772   1.333       .  A
C772        C773   1.394       .  A
C773        H779   1.082       .  S
O774        C775   1.334       .  A
C775        C776   1.396       .  A
C776        H780   1.082       .  S
C781        C786   1.379       .  A
C781        C782   1.403       .  A
C781        O787   1.318       .  A
C782        C783   1.401       .  A
C782        H793   1.082       .  S
C783        C792   1.362       .  A
C783        C784   1.379       .  A
C784        C785   1.412       .  A
C784        O790   1.326       .  A
C785        C786   1.411       .  A
C785        H794   1.082       .  S
C786        C789   1.372       .  A
O787        C788   1.332       .  A
C788        C789   1.396       .  A
C789        H795   1.082       .  S
O790        C791   1.336       .  A
C791        C792   1.390       .  A
C792        H796   1.082       .  S
C797        C802   1.380       .  A
C797        C798   1.403       .  A
C797        O803   1.320       .  A
C798        C799   1.403       .  A
C798        H809   1.082       .  S
C799        C808   1.360       .  A
C799        C800   1.380       .  A
C800        C801   1.400       .  A
C800        O806   1.317       .  A
C801        C802   1.400       .  A
C801        H810   1.082       .  S
C802        C805   1.357       .  A
O803        C804   1.331       .  A
C804        C805   1.391       .  A
C805        H811   1.083       .  S
O806        C807   1.330       .  A
C807        C808   1.394       .  A
C808        H812   1.082       .  S
C813        C818   1.379       .  A
C813        C814   1.411       .  A
C813        O819   1.323       .  A
C814        C815   1.411       .  A
C814        H825   1.082       .  S
C815        C824   1.374       .  A
C815        C816   1.380       .  A
C816        C817   1.399       .  A
C816        O822   1.312       .  A
C817        C818   1.395       .  A
C817        H826   1.082       .  S
C818        C821   1.356       .  A
O819        C820   1.334       .  A
C820        C821   1.387       .  A
C821        H827   1.083       .  S
O822        C823   1.330       .  A
C823        C824   1.397       .  A
C824        H828   1.082       .  S
C829        C834   1.380       .  A
C829        C830   1.403       .  A
C829        O835   1.319       .  A
C830        C831   1.402       .  A
C830        H841   1.082       .  S
C831        C840   1.361       .  A
C831        C832   1.380       .  A
C832        C833   1.402       .  A
C832        O838   1.317       .  A
C833        C834   1.401       .  A
C833        H842   1.083       .  S
C834        C837   1.358       .  A
O835        C836   1.331       .  A
C836        C837   1.394       .  A
C837        H843   1.082       .  S
O838        C839   1.332       .  A
C839        C840   1.392       .  A
C840        H844   1.082       .  S
C845        C850   1.380       .  A
C845        C846   1.400       .  A
C845        O851   1.317       .  A
C846        C847   1.400       .  A
C846        H857   1.082       .  S
C847        C856   1.356       .  A
C847        C848   1.379       .  A
C848        C849   1.414       .  A
C848        O854   1.331       .  A
C849        C850   1.414       .  A
C849        H858   1.082       .  S
C850        C853   1.374       .  A
O851        C852   1.330       .  A
C852        C853   1.398       .  A
C853        H859   1.082       .  S
O854        C855   1.337       .  A
C855        C856   1.393       .  A
C856        H860   1.083       .  S
C861        C866   1.379       .  A
C861        C862   1.415       .  A
C861        O867   1.328       .  A
C862        C863   1.413       .  A
C862        H873   1.082       .  S
C863        C872   1.376       .  A
C863        C864   1.379       .  A
C864        C865   1.398       .  A
C864        O870   1.312       .  A
C865        C866   1.396       .  A
C865        H874   1.082       .  S
C866        C869   1.357       .  A
O867        C868   1.337       .  A
C868        C869   1.387       .  A
C869        H875   1.083       .  S
O870        C871   1.330       .  A
C871        C872   1.398       .  A
C872        H876   1.082       .  S
C877        C882   1.378       .  A
C877        C878   1.417       .  A
C877        O883   1.330       .  A
C878        C879   1.416       .  A
C878        H889   1.082       .  S
C879        C888   1.381       .  A
C879        C880   1.378       .  A
C880        C881   1.396       .  A
C880        O886   1.309       .  A
C881        C882   1.394       .  A
C881        H890   1.083       .  S
C882        C885   1.353       .  A
O883        C884   1.338       .  A
C884        C885   1.390       .  A
C885        H891   1.083       .  S
O886        C887   1.329       .  A
C887        C888   1.400       .  A
C888        H892   1.082       .  S
C893        C898   1.380       .  A
C893        C894   1.410       .  A
C893        O899   1.325       .  A
C894        C895   1.410       .  A
C894        H905   1.082       .  S
C895        C904   1.371       .  A
C895        C896   1.381       .  A
C896        C897   1.398       .  A
C896        O902   1.313       .  A
C897        C898   1.397       .  A
C897        H906   1.083       .  S
C898        C901   1.355       .  A
O899        C900   1.334       .  A
C900        C901   1.389       .  A
C901        H907   1.083       .  S
O902        C903   1.329       .  A
C903        C904   1.394       .  A
C904        H908   1.082       .  S
C909        C914   1.380       .  A
C909        C910   1.403       .  A
C909        O915   1.319       .  A
C910        C911   1.402       .  A
C910        H921   1.082       .  S
C911        C920   1.359       .  A
C911        C912   1.380       .  A
C912        C913   1.409       .  A
C912        O918   1.325       .  A
C913        C914   1.409       .  A
C913        H922   1.082       .  S
C914        C917   1.370       .  A
O915        C916   1.332       .  A
C916        C917   1.395       .  A
C917        H923   1.082       .  S
O918        C919   1.333       .  A
C919        C920   1.391       .  A
C920        H924   1.083       .  S
C925        C930   1.379       .  A
C925        C926   1.414       .  A
C925        O931   1.329       .  A
C926        C927   1.413       .  A
C926        H937   1.082       .  S
C927        C936   1.375       .  A
C927        C928   1.380       .  A
C928        C929   1.399       .  A
C928        O934   1.314       .  A
C929        C930   1.398       .  A
C929        H938   1.083       .  S
C930        C933   1.356       .  A
O931        C932   1.337       .  A
C932        C933   1.391       .  A
C933        H939   1.083       .  S
O934        C935   1.329       .  A
C935        C936   1.397       .  A
C936        H940   1.082       .  S
C941        C946   1.379       .  A
C941        C942   1.413       .  A
C941        O947   1.329       .  A
C942        C943   1.412       .  A
C942        H953   1.082       .  S
C943        C952   1.372       .  A
C943        C944   1.380       .  A
C944        C945   1.400       .  A
C944        O950   1.317       .  A
C945        C946   1.400       .  A
C945        H954   1.082       .  S
C946        C949   1.356       .  A
O947        C948   1.336       .  A
C948        C949   1.392       .  A
C949        H955   1.083       .  S
O950        C951   1.330       .  A
C951        C952   1.396       .  A
C952        H956   1.082       .  S
C957        C962   1.378       .  A
C957        C958   1.418       .  A
C957        O963   1.329       .  A
C958        C959   1.416       .  A
C958        H969   1.082       .  S
C959        C968   1.381       .  A
C959        C960   1.379       .  A
C960        C961   1.396       .  A
C960        O966   1.310       .  A
C961        C962   1.394       .  A
C961        H970   1.083       .  S
C962        C965   1.354       .  A
O963        C964   1.339       .  A
C964        C965   1.389       .  A
C965        H971   1.083       .  S
O966        C967   1.329       .  A
C967        C968   1.400       .  A
C968        H972   1.082       .  S
