geometry optimzed in LAMMPS
_audit_creation_date              2020-11-30 
_audit_creation_method            'lammps2cif' 
_symmetry_space_group_name_H-M    'P1' 
_symmetry_Int_Tables_number       1 
_symmetry_cell_setting            triclinic 
loop_ 
_symmetry_equiv_pos_as_xyz 
  x,y,z 
_cell_length_a                    30.37909429 
_cell_length_b                    30.542771469267993 
_cell_length_c                    26.070058953784756 
_cell_angle_alpha                 89.9181072131009 
_cell_angle_beta                  89.82746135081388 
_cell_angle_gamma                 89.4565048516822 
loop_ 
_atom_site_label 
_atom_site_type_symbol 
_atom_site_fract_x 
_atom_site_fract_y 
_atom_site_fract_z 
_atom_site_charge 
C1          C  0.75394934  0.78999307  0.78620155     0.02000
C2          C  0.78824301  0.75864199  0.78194793     0.02000
C3          C  0.78445154  0.72353355  0.74718945    -0.18600
C4          C  0.74732724  0.71887575  0.71560408     0.02000
C5          C  0.71282132  0.75033720  0.71993763     0.02000
C6          C  0.71675008  0.78541139  0.75494098    -0.18600
H7          H  0.69036071  0.80944139  0.75788978     0.04000
H8          H  0.81109111  0.69976378  0.74443393     0.04000
C9          C  0.77380080  0.25774620  0.78957132     0.02000
C10         C  0.74264918  0.22385942  0.78612788     0.02000
C11         C  0.70779780  0.22755618  0.75079158    -0.18600
C12         C  0.70369325  0.26387889  0.71807489     0.02000
C13         C  0.73460776  0.29798221  0.72210787     0.02000
C14         C  0.76908062  0.29456995  0.75787354    -0.18600
H15         H  0.79315807  0.32049515  0.76017834     0.04000
H16         H  0.68405547  0.20137602  0.74807880     0.04000
C17         C  0.21243846  0.25167538  0.79245228     0.02000
C18         C  0.24454674  0.21816220  0.78940344     0.02000
C19         C  0.28020192  0.22377335  0.75583584    -0.18600
C20         C  0.28392054  0.26122172  0.72448381     0.02000
C21         C  0.24995636  0.29345323  0.72547896     0.02000
C22         C  0.21508136  0.28833960  0.76006106    -0.18600
H23         H  0.18907923  0.31292896  0.76118020     0.04000
H24         H  0.30514467  0.19823210  0.75357330     0.04000
C25         C  0.22258137  0.75128466  0.78391405     0.02000
C26         C  0.25427927  0.78452759  0.77776891     0.02000
C27         C  0.28693057  0.77951358  0.73976000    -0.18600
C28         C  0.28962138  0.74181057  0.70915275     0.02000
C29         C  0.25655261  0.70992716  0.71363873     0.02000
C30         C  0.22401186  0.71464019  0.75161448    -0.18600
H31         H  0.19910836  0.68964209  0.75566980     0.04000
H32         H  0.31110771  0.80502539  0.73442518     0.04000
C33         C  0.22983563  0.73853918  0.20219518     0.02000
C34         C  0.26232498  0.77147618  0.20064859     0.02000
C35         C  0.29832229  0.76815011  0.23410714    -0.18600
C36         C  0.30187752  0.73398009  0.27005198     0.02000
C37         C  0.27046652  0.70018010  0.27041788     0.02000
C38         C  0.23508719  0.70265872  0.23584888    -0.18600
H39         H  0.20994606  0.67771180  0.23718088     0.04000
H40         H  0.32275083  0.79381697  0.23423476     0.04000
C41         C  0.76897421  0.79828109  0.22374286     0.02000
C42         C  0.80256101  0.76601207  0.22012659     0.02000
C43         C  0.80069873  0.72926832  0.25248521    -0.18600
C44         C  0.76560367  0.72350550  0.28708369     0.02000
C45         C  0.73122531  0.75477572  0.28898893     0.02000
C46         C  0.73408799  0.79240921  0.25844089    -0.18600
H47         H  0.70788395  0.81673990  0.26020049     0.04000
H48         H  0.82600395  0.70411277  0.24954803     0.04000
C49         C  0.77602258  0.25517716  0.21629275     0.02000
C50         C  0.74462626  0.22152208  0.21392624     0.02000
C51         C  0.70812781  0.22395633  0.24659716    -0.18600
C52         C  0.70282784  0.25826539  0.28226904     0.02000
C53         C  0.73415764  0.29219213  0.28469038     0.02000
C54         C  0.77078049  0.28961088  0.25185791    -0.18600
H55         H  0.79586311  0.31455375  0.25413077     0.04000
H56         H  0.68348462  0.19855078  0.24461116     0.04000
O57         O  0.46405307  0.85530684  0.43607551    -0.85600
O58         O  0.42134074  0.78175696  0.46367399    -0.82700
C59         C  0.43338086  0.75575880  0.42857693     0.97800
O60         O  0.47116575  0.73765819  0.43040196    -0.82700
O61         O  0.56244265  0.73449902  0.44995996    -0.85400
C62         C  0.57902751  0.76259970  0.41963451     1.02400
O63         O  0.56740128  0.80221420  0.42229501    -0.78100
O64         O  0.52902217  0.87897658  0.45556495    -0.78300
C65         C  0.49678102  0.87841034  0.42501767     1.02300
O66         O  0.47927900  0.87386913  0.54597662    -0.85600
O67         O  0.44238906  0.79634705  0.56806701    -0.82700
C68         C  0.43403108  0.75624396  0.56930928     0.97800
O69         O  0.45266470  0.73004525  0.53825257    -0.82700
O70         O  0.54330540  0.73777863  0.56000566    -0.85300
C71         C  0.57988445  0.75746233  0.56154321     1.02300
O72         O  0.59129241  0.78039948  0.52380318    -0.78100
O73         O  0.54647183  0.85068378  0.56014123    -0.78300
C74         C  0.51276791  0.87140277  0.57465733     1.02300
Cr75       Cr  0.45546623  0.82521515  0.50277734     1.93700
Cr76       Cr  0.50741903  0.73865218  0.49474458     1.93200
Cr77       Cr  0.55496766  0.82639492  0.49079583     1.39100
O78         O  0.50573692  0.79668857  0.49587294    -1.23400
O79         O  0.63424144  0.04459006  0.06125926    -0.85600
O80         O  0.70411021  0.09169736  0.02781796    -0.82700
C81         C  0.73364688  0.08387576  0.06082454     0.97800
O82         O  0.75362133  0.04707016  0.06110161    -0.82700
O83         O  0.76327580  0.95502085  0.04790864    -0.85400
C84         C  0.73629601  0.93766918  0.07926950     1.02400
O85         O  0.69635290  0.94789084  0.07753694    -0.78100
O86         O  0.61622882  0.97659438  0.04761440    -0.78300
C87         C  0.61428526  0.01065952  0.07518567     1.02300
O88         O  0.61420538  0.02129401  0.95447836    -0.85600
O89         O  0.68779116  0.06172843  0.92537241    -0.82700
C90         C  0.72634130  0.07553930  0.92209425     0.97800
O91         O  0.75597608  0.06013117  0.95151913    -0.82700
O92         O  0.75606903  0.96775300  0.93702446    -0.85300
C93         C  0.74129933  0.92898660  0.93897303     1.02300
O94         O  0.71692689  0.91810721  0.97609850    -0.78100
O95         O  0.64276368  0.95634688  0.94183774    -0.78300
C96         C  0.61956308  0.98786070  0.92639840     1.02300
Cr97       Cr  0.66221291  0.05143908  0.99294716     1.93700
Cr98       Cr  0.75347072  0.00719940  0.99946894     1.93200
Cr99       Cr  0.66950734  0.95338520  0.01020043     1.39100
O100        O  0.69517810  0.00422703  0.00118147    -1.23400
O101        O  0.38217352  0.02096028  0.95125602    -0.85600
O102        O  0.30339441  0.05707706  0.92060634    -0.82700
C103        C  0.26287233  0.06620642  0.91858833     0.97800
O104        O  0.23598002  0.04863359  0.94984032    -0.82700
O105        O  0.24260182  0.95841730  0.93140676    -0.85400
C106        C  0.26264915  0.92191989  0.92923622     1.02400
O107        O  0.28840608  0.91061600  0.96481388    -0.78100
O108        O  0.35928394  0.95633329  0.92926133    -0.78300
C109        C  0.38312379  0.98899814  0.92047903     1.02300
O110        O  0.35612807  0.03724448  0.05741289    -0.85600
O111        O  0.28350986  0.08056656  0.02245761    -0.82700
C112        C  0.25916805  0.06944788  0.05928631     0.97800
O113        O  0.24210889  0.03170542  0.05942282    -0.82700
O114        O  0.24010247  0.94057878  0.04083784    -0.85300
C115        C  0.26881213  0.92407913  0.07081667     1.02300
O116        O  0.30856034  0.93461762  0.06690151    -0.78100
O117        O  0.38380994  0.97407999  0.03590132    -0.78300
C118        C  0.37997352  0.00466046  0.06845103     1.02300
Cr119      Cr  0.32982083  0.04554328  0.98831103     1.93700
Cr120      Cr  0.24369868  0.99482232  0.99537027     1.93200
Cr121      Cr  0.33309998  0.94721221  0.99869503     1.39100
O122        O  0.30192751  0.99579366  0.99389641    -1.23400
O123        O  0.51241433  0.11346664  0.46258013    -0.85600
O124        O  0.55344737  0.18684312  0.43294082    -0.82700
C125        C  0.56289793  0.22626344  0.42579244     0.97800
O126        O  0.54485080  0.25618048  0.45240492    -0.82700
O127        O  0.45362905  0.25348241  0.43590690    -0.85400
C128        C  0.41533615  0.23737434  0.43679731     1.02400
O129        O  0.40444269  0.21353604  0.47404686    -0.78100
O130        O  0.44766453  0.13969243  0.44159285    -0.78300
C131        C  0.48044497  0.11560694  0.43134758     1.02300
O132        O  0.52820505  0.14020381  0.57059098    -0.85600
O133        O  0.57724885  0.20814226  0.53479963    -0.82700
C134        C  0.56775388  0.23934665  0.56470397     0.97800
O135        O  0.53043502  0.25819892  0.56169273    -0.82700
O136        O  0.43938846  0.26263211  0.54615701    -0.85300
C137        C  0.42275938  0.23672912  0.57894220     1.02300
O138        O  0.42956183  0.19604491  0.57643343    -0.78100
O139        O  0.46391338  0.11660546  0.54762234    -0.78300
C140        C  0.49508573  0.11703969  0.57954162     1.02300
Cr141      Cr  0.53921084  0.16417300  0.50072372     1.93700
Cr142      Cr  0.49184127  0.25366538  0.49921159     1.93200
Cr143      Cr  0.44006998  0.16826855  0.50947701     1.39100
O144        O  0.49057884  0.19572475  0.50313925    -1.23400
C145        C  0.49314274  0.00050627  0.25073503    -0.02800
C146        C  0.51077425  0.99065550  0.74748191    -0.02800
O147        O  0.88726136  0.51989910  0.45930648    -0.85600
O148        O  0.81386844  0.56109277  0.42601446    -0.82700
C149        C  0.77480155  0.57401382  0.42124259     0.97800
O150        O  0.74463510  0.55895892  0.45023631    -0.82700
O151        O  0.74268362  0.46726409  0.43639927    -0.85400
C152        C  0.75722962  0.42818939  0.43704308     1.02400
O153        O  0.78530170  0.41671991  0.47026555    -0.78100
O154        O  0.85838122  0.45858789  0.43575250    -0.78300
C155        C  0.88286219  0.49036837  0.42566969     1.02300
O156        O  0.85993739  0.54063712  0.56372360    -0.85600
O157        O  0.79286883  0.59076522  0.52705143    -0.82700
C158        C  0.76427102  0.58219708  0.56074965     0.97800
O159        O  0.74596143  0.54506875  0.56093841    -0.82700
O160        O  0.73784583  0.45417864  0.54675735    -0.85300
C161        C  0.76554168  0.43546821  0.57633483     1.02300
O162        O  0.80589346  0.44307475  0.57222461    -0.78100
O163        O  0.88386460  0.47558328  0.54325158    -0.78300
C164        C  0.88187800  0.50698657  0.57506915     1.02300
Cr165      Cr  0.83657640  0.54993202  0.49435619     1.93700
Cr166      Cr  0.74642421  0.50616965  0.49856832     1.93200
Cr167      Cr  0.83182928  0.45189103  0.50481219     1.39100
O168        O  0.80446269  0.50262174  0.49921378    -1.23400
O169        O  0.95397434  0.65239846  0.06172371    -0.85600
O170        O  0.91786818  0.72675578  0.02308997    -0.82700
C171        C  0.93110259  0.75195170  0.05802405     0.97800
O172        O  0.97054340  0.76490684  0.05791713    -0.82700
O173        O  0.06223733  0.76087272  0.04080789    -0.85400
C174        C  0.07731035  0.73169677  0.07113927     1.02400
O175        O  0.06192280  0.69384065  0.07048038    -0.78100
O176        O  0.01787198  0.62114485  0.04623940    -0.78300
C177        C  0.98455401  0.62689067  0.07496763     1.02300
O178        O  0.97202478  0.62120099  0.95901286    -0.85600
O179        O  0.94560732  0.70017488  0.92274681    -0.82700
C180        C  0.93578597  0.73993671  0.91854627     0.97800
O181        O  0.95427582  0.76792940  0.94746463    -0.82700
O182        O  0.04570013  0.75557935  0.93222772    -0.85300
C183        C  0.08231148  0.73535850  0.93284423     1.02300
O184        O  0.08997160  0.70651942  0.96669290    -0.78100
O185        O  0.03858513  0.63904791  0.93802494    -0.78300
C186        C  0.00382601  0.61887974  0.92786474     1.02300
Cr187      Cr  0.95076819  0.67668052  0.99191258     1.93700
Cr188      Cr  0.00772039  0.75874796  0.99481163     1.93200
Cr189      Cr  0.04897751  0.66710627  0.00477796     1.39100
O190        O  0.00266871  0.70103691  0.99736608    -1.23400
O191        O  0.95711545  0.36417766  0.93928370    -0.85600
O192        O  0.90711690  0.29632703  0.97269554    -0.82700
C193        C  0.91494106  0.26785970  0.93881810     0.97800
O194        O  0.95184422  0.24797580  0.93834775    -0.82700
O195        O  0.04399213  0.23874941  0.95307206    -0.85400
C196        C  0.06224941  0.26676363  0.92401739     1.02400
O197        O  0.05226375  0.30659561  0.92766169    -0.78100
O198        O  0.02245822  0.38521918  0.96093788    -0.78300
C199        C  0.99103273  0.38587234  0.92912336     1.02300
O200        O  0.97635313  0.38536756  0.04684139    -0.85600
O201        O  0.93430123  0.31203541  0.07404119    -0.82700
C202        C  0.92227764  0.27298863  0.07785748     0.97800
O203        O  0.93814348  0.24370432  0.04830541    -0.82700
O204        O  0.03036976  0.24113794  0.06275505    -0.85300
C205        C  0.06960151  0.25503948  0.06130288     1.02300
O206        O  0.08045692  0.28286546  0.02791793    -0.78100
O207        O  0.03960275  0.35502353  0.06602984    -0.78300
C208        C  0.00811240  0.38005972  0.07761224     1.02300
Cr209      Cr  0.94703561  0.33750273  0.00760290     1.93700
Cr210      Cr  0.99118683  0.24666226  0.00061769     1.93200
Cr211      Cr  0.04522519  0.33083191  0.99611885     1.39100
O212        O  0.99435781  0.30458829  0.00174147    -1.23400
O213        O  0.11369790  0.52519047  0.53480294    -0.85600
O214        O  0.18968228  0.56202299  0.56338959    -0.82700
C215        C  0.22992349  0.56907101  0.56990115     0.97800
O216        O  0.25879409  0.54931508  0.54264028    -0.82700
O217        O  0.25080922  0.45910523  0.56069878    -0.85400
C218        C  0.23168841  0.42243097  0.56159424     1.02400
O219        O  0.20786712  0.41217507  0.52416753    -0.78100
O220        O  0.13828105  0.46096092  0.55820188    -0.78300
C221        C  0.11533647  0.49444656  0.56768523     1.02300
O222        O  0.14094816  0.53872918  0.42694786    -0.85600
O223        O  0.21249761  0.58327577  0.46072095    -0.82700
C224        C  0.24275068  0.57145307  0.43022871     0.97800
O225        O  0.25875810  0.53300123  0.43284926    -0.82700
O226        O  0.25708277  0.44163095  0.44921515    -0.85300
C227        C  0.22811635  0.42577338  0.41912043     1.02300
O228        O  0.18870711  0.43836892  0.42247193    -0.78100
O229        O  0.11268828  0.47775559  0.45317729    -0.78300
C230        C  0.11597755  0.50690127  0.41900921     1.02300
Cr231      Cr  0.16594501  0.54883672  0.49602832     1.93700
Cr232      Cr  0.25274454  0.49581283  0.49618631     1.93200
Cr233      Cr  0.16374483  0.45053957  0.48981889     1.39100
O234        O  0.19461643  0.49864464  0.49392196    -1.23400
C235        C  0.99586992  0.50613311  0.24428843    -0.02800
C236        C  0.00107960  0.50342330  0.74936857    -0.02800
C237        C  0.20858784  0.23762898  0.21081049     0.02000
C238        C  0.24344643  0.20669284  0.21130118     0.02000
C239        C  0.27851618  0.21181428  0.24585187    -0.18600
C240        C  0.27997373  0.24727160  0.27984953     0.02000
C241        C  0.24564545  0.27887090  0.27906574     0.02000
C242        C  0.21074820  0.27385067  0.24391503    -0.18600
H243        H  0.18498581  0.29860288  0.24218136     0.04000
H244        H  0.30475948  0.18749576  0.24671578     0.04000
C245        C  0.06453471  0.53503607  0.62593094    -0.26600
C246        C  0.09032325  0.49774824  0.61676669    -0.14700
C247        C  0.09230773  0.46496272  0.65505973     0.36000
C248        C  0.06628911  0.46867426  0.69952597    -0.26000
C249        C  0.03821632  0.50500618  0.70802399    -0.15300
C250        C  0.03872577  0.53914618  0.67023429     0.37000
N251        N  0.01132808  0.57747055  0.67499141    -0.89500
H252        H  0.06326357  0.56113968  0.59775002     0.18200
H253        H  0.06596437  0.44094991  0.72523200     0.18100
N254        N  0.11987002  0.42703346  0.64870582    -0.88600
H255        H  0.99046536  0.57859873  0.64318127     0.35500
H256        H  0.03108194  0.60521919  0.67234083     0.40600
H257        H  0.10000056  0.39929522  0.65026771     0.40200
H258        H  0.14179605  0.42560057  0.67951624     0.35100
C259        C  0.03490299  0.46984182  0.31846871    -0.26600
C260        C  0.03694887  0.50355133  0.28093717    -0.14700
C261        C  0.07438466  0.53115822  0.28381471     0.36000
C262        C  0.09944154  0.53205551  0.32935092    -0.26000
C263        C  0.09058870  0.50368230  0.37058403    -0.15300
C264        C  0.05956796  0.47052363  0.36329221     0.37000
N265        N  0.05156566  0.43799399  0.40183220    -0.89500
H266        H  0.01022047  0.44475632  0.31613741     0.18200
H267        H  0.12677707  0.55448144  0.33182202     0.18100
N268        N  0.09125338  0.55361657  0.23992583    -0.88600
H269        H  0.05715899  0.40714758  0.38558203     0.35500
H270        H  0.01842879  0.44006980  0.41265145     0.40600
H271        H  0.12173826  0.53945894  0.23069250     0.40200
H272        H  0.09744355  0.58606098  0.25020894     0.35100
C273        C  0.20257764  0.35734194  0.38014103    -0.26600
C274        C  0.23672272  0.38785279  0.38472072    -0.14700
C275        C  0.27577021  0.38124673  0.35621786     0.36000
C276        C  0.27866127  0.34533304  0.32195173    -0.26000
C277        C  0.24357317  0.31570443  0.31665598    -0.15300
C278        C  0.20574153  0.32160375  0.34711900     0.37000
N279        N  0.17040740  0.29088998  0.34517393    -0.89500
H280        H  0.17279842  0.36101936  0.40282118     0.18200
H281        H  0.30784307  0.34106563  0.29849581     0.18100
N282        N  0.31166353  0.41119221  0.36122401    -0.88600
H283        H  0.14175120  0.30783204  0.33464217     0.35500
H284        H  0.16566661  0.27824767  0.38204738     0.40600
H285        H  0.30094746  0.44166906  0.34759426     0.40200
H286        H  0.33802408  0.40143812  0.33786710     0.35100
C287        C  0.03119487  0.44692802  0.11947997    -0.26600
C288        C  0.01062785  0.40694528  0.12390594    -0.14700
C289        C  0.99382290  0.39393045  0.17206701     0.36000
C290        C  0.99202927  0.42421912  0.21255672    -0.26000
C291        C  0.00564401  0.46799109  0.20550898    -0.15300
C292        C  0.03093633  0.47644368  0.16007885     0.37000
N293        N  0.05604710  0.51545713  0.15394417    -0.89500
H294        H  0.04744094  0.45565779  0.08383927     0.18200
H295        H  0.97998247  0.41266551  0.24894874     0.18100
N296        N  0.97845958  0.35043097  0.18099614    -0.88600
H297        H  0.04524128  0.53161571  0.12084361     0.35500
H298        H  0.08891830  0.50629967  0.14798090     0.40600
H299        H  0.00364477  0.32835210  0.17126675     0.40200
H300        H  0.95157271  0.34506347  0.15717096     0.35100
C301        C  0.03446220  0.43076533  0.86672210    -0.26600
C302        C  0.99435392  0.41158595  0.88032897    -0.14700
C303        C  0.95867658  0.41640257  0.84627598     0.36000
C304        C  0.96286821  0.44232685  0.80197500    -0.26000
C305        C  0.00247531  0.46412512  0.78885834    -0.15300
C306        C  0.03889009  0.45672061  0.82235562     0.37000
N307        N  0.08053824  0.47653511  0.81299512    -0.89500
H308        H  0.06283148  0.42649403  0.89139479     0.18200
H309        H  0.93321465  0.44735255  0.77990252     0.18100
N310        N  0.91728730  0.39617852  0.85702177    -0.88600
H311        H  0.10427411  0.45166867  0.80973027     0.35500
H312        H  0.08854502  0.49554095  0.84491825     0.40600
H313        H  0.90958652  0.37572089  0.82626470     0.40200
H314        H  0.89313486  0.42072686  0.85926590     0.35100
C315        C  0.09416967  0.23250461  0.14969817    -0.26600
C316        C  0.10441915  0.24071276  0.09801010    -0.14700
C317        C  0.14933028  0.24213167  0.08303150     0.36000
C318        C  0.18245766  0.24029014  0.12044624    -0.26000
C319        C  0.17217326  0.23539552  0.17250729    -0.15300
C320        C  0.12758108  0.22962568  0.18692030     0.37000
N321        N  0.11537013  0.22088274  0.23900237    -0.89500
H322        H  0.06005316  0.23061214  0.16168025     0.18200
H323        H  0.21657760  0.24376708  0.10903889     0.18100
N324        N  0.16111808  0.24662230  0.02978412    -0.88600
H325        H  0.12500335  0.24716634  0.26178382     0.35500
H326        H  0.13240661  0.19285315  0.25116300     0.40600
H327        H  0.15024260  0.21867223  0.01070879     0.40200
H328        H  0.19532352  0.24732905  0.02522963     0.35100
C329        C  0.00664625  0.58584297  0.20936059    -0.26600
C330        C  0.98343343  0.54618252  0.20937191    -0.14700
C331        C  0.95005741  0.54195598  0.17065160     0.36000
C332        C  0.95027968  0.56936422  0.12774874    -0.26000
C333        C  0.98091317  0.60270342  0.12341068    -0.15300
C334        C  0.00691564  0.61318713  0.16599997     0.37000
N335        N  0.03386221  0.65136015  0.16521542    -0.89500
H336        H  0.02520874  0.59583785  0.24213773     0.18200
H337        H  0.92724635  0.56362118  0.09683620     0.18100
N338        N  0.91560132  0.51027801  0.17297343    -0.88600
H339        H  0.06652073  0.64146733  0.17102271     0.35500
H340        H  0.02443444  0.67133193  0.19594795     0.40600
H341        H  0.89689666  0.51565605  0.20600312     0.40200
H342        H  0.92821974  0.47847421  0.17237747     0.35100
C343        C  0.03765236  0.59239449  0.84682244    -0.26600
C344        C  0.00091206  0.59334294  0.87944884    -0.14700
C345        C  0.96238157  0.57188564  0.86339780     0.36000
C346        C  0.96287494  0.54765212  0.81810785    -0.26000
C347        C  0.00056075  0.54383000  0.78610834    -0.15300
C348        C  0.03831247  0.56893824  0.80084113     0.37000
N349        N  0.07844750  0.57232169  0.77196259    -0.89500
H350        H  0.06705421  0.61013787  0.85717446     0.18200
H351        H  0.93368239  0.52897506  0.80956290     0.18100
N352        N  0.92226065  0.57298760  0.89238537    -0.88600
H353        H  0.07350342  0.59038430  0.73864342     0.35500
H354        H  0.09325756  0.54227592  0.76437143     0.40600
H355        H  0.91195347  0.60555074  0.89633430     0.40200
H356        H  0.92791615  0.55917542  0.92848473     0.35100
C357        C  0.93168246  0.53659964  0.70465003    -0.26600
C358        C  0.95970491  0.50020261  0.71381742    -0.14700
C359        C  0.95499379  0.46328827  0.68089595     0.36000
C360        C  0.92807481  0.46577834  0.63752665    -0.26000
C361        C  0.90545277  0.50437128  0.62489973    -0.15300
C362        C  0.90558953  0.53934777  0.66035455     0.37000
N363        N  0.88131015  0.57891794  0.65044906    -0.89500
H364        H  0.93358503  0.56574873  0.72788660     0.18200
H365        H  0.92663169  0.43765338  0.61231491     0.18100
N366        N  0.97954874  0.42370468  0.68965473    -0.88600
H367        H  0.90351384  0.60485328  0.64908757     0.35500
H368        H  0.85973778  0.58438960  0.68115372     0.40600
H369        H  0.99853823  0.41709785  0.65699664     0.40200
H370        H  0.95720258  0.39814656  0.69413536     0.35100
C371        C  0.93070744  0.53206815  0.36711129    -0.26600
C372        C  0.90583452  0.49448637  0.37523202    -0.14700
C373        C  0.90153349  0.46461968  0.33382378     0.36000
C374        C  0.92577929  0.47093969  0.28825781    -0.26000
C375        C  0.95640079  0.50525677  0.28346957    -0.15300
C376        C  0.95507170  0.53807733  0.32237644     0.37000
N377        N  0.98123431  0.57666342  0.31859353    -0.89500
H378        H  0.93255637  0.55707543  0.39646014     0.18200
H379        H  0.92016937  0.44852788  0.25719770     0.18100
N380        N  0.87315895  0.42750194  0.33655753    -0.88600
H381        H  0.00267910  0.57749079  0.34989079     0.35500
H382        H  0.96028170  0.60395258  0.32081938     0.40600
H383        H  0.84099012  0.43847006  0.34352698     0.40200
H384        H  0.88348132  0.40733305  0.36670733     0.35100
C385        C  0.50741620  0.10292258  0.67384162    -0.26600
C386        C  0.49338828  0.08837857  0.62530743    -0.14700
C387        C  0.47504810  0.04672591  0.62146275     0.36000
C388        C  0.47643442  0.01874914  0.66347554    -0.26000
C389        C  0.49926142  0.02922389  0.70942839    -0.15300
C390        C  0.50712875  0.07443879  0.71700526     0.37000
N391        N  0.51348737  0.09156478  0.76758396    -0.89500
H392        H  0.51716265  0.13672617  0.67836727     0.18200
H393        H  0.46193520  0.98698045  0.65780678     0.18100
N394        N  0.45680125  0.03157079  0.57409284    -0.88600
H395        H  0.48334915  0.08933626  0.78674301     0.35500
H396        H  0.52063872  0.12495568  0.76580257     0.40600
H397        H  0.42408387  0.02284021  0.58079112     0.40200
H398        H  0.47417246  0.00344031  0.56282839     0.35100
C399        C  0.44627417  0.06309553  0.36989710    -0.26600
C400        C  0.48153408  0.08995940  0.38281252    -0.14700
C401        C  0.51735621  0.09258546  0.34863837     0.36000
C402        C  0.51810246  0.06769541  0.30334775    -0.26000
C403        C  0.48456184  0.03760358  0.29150443    -0.15300
C404        C  0.44781990  0.03621908  0.32600331     0.37000
N405        N  0.41258528  0.00616627  0.31805676    -0.89500
H406        H  0.41821731  0.06110350  0.39555042     0.18200
H407        H  0.54722899  0.06980496  0.27958225     0.18100
N408        N  0.55388847  0.11996451  0.36012772    -0.88600
H409        H  0.38322942  0.02414739  0.31532354     0.35500
H410        H  0.41025544  0.98609590  0.35047332     0.40600
H411        H  0.55759361  0.14236361  0.33008845     0.40200
H412        H  0.58208074  0.10010790  0.36127846     0.35100
C413        C  0.33846051  0.22979399  0.40610576    -0.26600
C414        C  0.38150295  0.24465073  0.39589193    -0.14700
C415        C  0.39074879  0.26111000  0.34613208     0.36000
C416        C  0.35725984  0.26230562  0.30881244    -0.26000
C417        C  0.31465097  0.24726399  0.31989341    -0.15300
C418        C  0.30570883  0.23014338  0.36884505     0.37000
N419        N  0.26406921  0.21104740  0.38115330    -0.89500
H420        H  0.33009797  0.21604753  0.44309926     0.18200
H421        H  0.36461308  0.27461131  0.27076706     0.18100
N422        N  0.43375380  0.27555888  0.33180067    -0.88600
H423        H  0.23943062  0.23476667  0.37656134     0.35500
H424        H  0.25825557  0.18555349  0.35542602     0.40600
H425        H  0.45600598  0.24958452  0.33679091     0.40200
H426        H  0.44256885  0.30131897  0.35590192     0.35100
C427        C  0.43163568  0.96565220  0.12693182    -0.26600
C428        C  0.40341063  0.00140671  0.11880931    -0.14700
C429        C  0.39712435  0.03122443  0.15980025     0.36000
C430        C  0.42192148  0.02677550  0.20490253    -0.26000
C431        C  0.45476406  0.99391224  0.21104886    -0.15300
C432        C  0.45706961  0.96111428  0.17135867     0.37000
N433        N  0.48549090  0.92314733  0.17254424    -0.89500
H434        H  0.43533691  0.94093217  0.09739754     0.18200
H435        H  0.41770529  0.05241037  0.23295586     0.18100
N436        N  0.36672376  0.06726731  0.15681300    -0.88600
H437        H  0.50846159  0.92601690  0.14280263     0.35500
H438        H  0.50297882  0.91944911  0.20621252     0.40600
H439        H  0.33525335  0.05512643  0.14979920     0.40200
H440        H  0.37620773  0.08790771  0.12684175     0.35100
C441        C  0.48242037  0.01141692  0.83746618    -0.26600
C442        C  0.47299775  0.99106765  0.78967059    -0.14700
C443        C  0.42892519  0.97636243  0.78393563     0.36000
C444        C  0.40054117  0.97422175  0.82730903    -0.26000
C445        C  0.41356216  0.98990871  0.87574241    -0.15300
C446        C  0.45494966  0.00961344  0.87986588     0.37000
N447        N  0.47115722  0.02725444  0.92709922    -0.89500
H448        H  0.51237168  0.02926458  0.84337933     0.18200
H449        H  0.36753082  0.96172422  0.82259852     0.18100
N450        N  0.41147649  0.96629150  0.73447901    -0.88600
H451        H  0.46938138  0.00322521  0.95563263     0.35500
H452        H  0.45216700  0.05449337  0.93756081     0.40600
H453        H  0.38579082  0.98838433  0.72699585     0.40200
H454        H  0.39779301  0.93502278  0.73602042     0.35100
C455        C  0.28427577  0.13617182  0.10262207    -0.26600
C456        C  0.25301298  0.10241734  0.10061438    -0.14700
C457        C  0.21778005  0.10280824  0.13612746     0.36000
C458        C  0.21452959  0.13737954  0.17205743    -0.26000
C459        C  0.24621883  0.17068885  0.17337991    -0.15300
C460        C  0.28109330  0.16995046  0.13812001     0.37000
N461        N  0.31305193  0.20418570  0.13756358    -0.89500
H462        H  0.31189001  0.13670715  0.07621534     0.18200
H463        H  0.18756865  0.13822899  0.19933443     0.18100
N464        N  0.18522732  0.06903450  0.13509801    -0.88600
H465        H  0.34414461  0.18995803  0.14307101     0.35500
H466        H  0.31265657  0.21878717  0.10127944     0.40600
H467        H  0.16062720  0.07538628  0.16232749     0.40200
H468        H  0.20064736  0.03988040  0.14643290     0.35100
C469        C  0.56587983  0.97789851  0.20464772    -0.26600
C470        C  0.53281540  0.01023151  0.21313735    -0.14700
C471        C  0.53198403  0.04630871  0.17711782     0.36000
C472        C  0.55961579  0.04585683  0.13378868    -0.26000
C473        C  0.58821756  0.01101299  0.12356343    -0.15300
C474        C  0.59271193  0.97778213  0.16050651     0.37000
N475        N  0.62455207  0.94346420  0.15331726    -0.89500
H476        H  0.56907081  0.94994692  0.22975687     0.18200
H477        H  0.55732353  0.07260891  0.10650193     0.18100
N478        N  0.50309626  0.08374933  0.18103873    -0.83800
H479        H  0.60808131  0.91356278  0.15358459     0.35500
H480        H  0.64612504  0.94377753  0.18448495     0.40600
H481        H  0.48460375  0.08466422  0.21441883     0.40200
H482        H  0.48113871  0.08292768  0.15029875     0.35100
C483        C  0.60519775  0.02097352  0.84064533    -0.26600
C484        C  0.59964439  0.98589372  0.87491204    -0.14700
C485        C  0.57837688  0.94816095  0.85753231     0.36000
C486        C  0.55707955  0.94912574  0.81046171    -0.26000
C487        C  0.55465413  0.98762006  0.77957439    -0.15300
C488        C  0.58513964  0.02148418  0.79193564     0.37000
N489        N  0.60062877  0.05360355  0.75606695    -0.89500
H490        H  0.62622382  0.04790546  0.85134804     0.18200
H491        H  0.53684312  0.92113232  0.80167725     0.18100
N492        N  0.57482435  0.90942387  0.88832887    -0.88600
H493        H  0.59495450  0.08494936  0.77095262     0.35500
H494        H  0.58575774  0.05127471  0.72059698     0.40600
H495        H  0.56079639  0.91784390  0.92367702     0.40200
H496        H  0.60632330  0.89641560  0.89433603     0.35100
C497        C  0.54844430  0.92540417  0.62911552    -0.26600
C498        C  0.51465615  0.89557585  0.62348990    -0.14700
C499        C  0.48636442  0.88762097  0.66574878     0.36000
C500        C  0.48924032  0.91378541  0.71005261    -0.26000
C501        C  0.51746505  0.95004007  0.71123983    -0.15300
C502        C  0.55053928  0.95216696  0.67218277     0.37000
N503        N  0.58482020  0.98379336  0.67408356    -0.89500
H504        H  0.57239040  0.92959372  0.59858966     0.18200
H505        H  0.46837104  0.90648353  0.74242241     0.18100
N506        N  0.45489483  0.85311704  0.66498834    -0.88600
H507        H  0.58252315  0.00367338  0.64146227     0.35500
H508        H  0.61506427  0.96720494  0.67291629     0.40600
H509        H  0.47172629  0.82366069  0.65834838     0.40200
H510        H  0.43310281  0.85896396  0.63475989     0.35100
C511        C  0.53344098  0.93262090  0.36752434    -0.26600
C512        C  0.49778447  0.90480577  0.37655918    -0.14700
C513        C  0.46519096  0.90140859  0.33804669     0.36000
C514        C  0.46687905  0.92890993  0.29459826    -0.26000
C515        C  0.50031467  0.96039664  0.28773909    -0.15300
C516        C  0.53524551  0.95992096  0.32421251     0.37000
N517        N  0.57204716  0.98859399  0.31893486    -0.89500
H518        H  0.55991938  0.93437931  0.39518258     0.18200
H519        H  0.43960574  0.92773204  0.26815781     0.18100
N520        N  0.42982114  0.87072796  0.34324242    -0.88600
H521        H  0.60066939  0.96936929  0.31705716     0.35500
H522        H  0.57399992  0.00776366  0.35204151     0.40600
H523        H  0.41113800  0.86950014  0.30961507     0.40200
H524        H  0.40866671  0.88254870  0.37178568     0.35100
C525        C  0.73582125  0.40567206  0.34762634    -0.26600
C526        C  0.74268940  0.39454701  0.39931478    -0.14700
C527        C  0.74054961  0.34992103  0.41361012     0.36000
C528        C  0.73591886  0.31732075  0.37602706    -0.26000
C529        C  0.73229076  0.32810610  0.32389270    -0.15300
C530        C  0.73043708  0.37306743  0.31001177     0.37000
N531        N  0.72285322  0.38658261  0.25811553    -0.89500
H532        H  0.73656565  0.43973328  0.33598695     0.18200
H533        H  0.73665356  0.28324077  0.38761865     0.18100
N534        N  0.74330643  0.33747806  0.46651900    -0.88600
H535        H  0.69346549  0.37265468  0.24562389     0.35500
H536        H  0.74845643  0.37496232  0.23498241     0.40600
H537        H  0.76990443  0.31581198  0.47064345     0.40200
H538        H  0.71459281  0.32068695  0.47612723     0.35100
C539        C  0.66873899  0.21635977  0.35128797    -0.26600
C540        C  0.66725931  0.25365226  0.32031517    -0.14700
C541        C  0.63139051  0.28315840  0.32411690     0.36000
C542        C  0.59749135  0.27448564  0.35964258    -0.26000
C543        C  0.59853748  0.23613739  0.38942125    -0.15300
C544        C  0.63481517  0.20711107  0.38529602     0.37000
N545        N  0.63799984  0.16851279  0.41647816    -0.89500
H546        H  0.69642396  0.19378270  0.34852727     0.18200
H547        H  0.56972174  0.29683238  0.36301865     0.18100
N548        N  0.62910664  0.32094217  0.29134594    -0.88600
H549        H  0.66640047  0.17078166  0.43882433     0.35500
H550        H  0.64198694  0.14155905  0.39219342     0.40600
H551        H  0.60054711  0.33919202  0.29901029     0.40200
H552        H  0.62651605  0.30984413  0.25356804     0.35100
C553        C  0.84520482  0.22421021  0.17755170    -0.26600
C554        C  0.81280066  0.25740656  0.17935222    -0.14700
C555        C  0.81540503  0.29341197  0.14592625     0.36000
C556        C  0.85158583  0.29692752  0.11332899    -0.26000
C557        C  0.88483204  0.26468177  0.11223625    -0.15300
C558        C  0.88130825  0.22736261  0.14367827     0.37000
N559        N  0.91450630  0.19359460  0.14183621    -0.89500
H560        H  0.84262276  0.19634370  0.20309407     0.18200
H561        H  0.85365313  0.32506160  0.08805433     0.18100
N562        N  0.78110257  0.32623088  0.14522880    -0.88600
H563        H  0.90673786  0.16830953  0.16732612     0.35500
H564        H  0.94396162  0.20712194  0.15463407     0.40600
H565        H  0.75225736  0.31122529  0.13277663     0.40200
H566        H  0.78819639  0.35076813  0.11853187     0.35100
C567        C  0.75247803  0.10851046  0.15028112    -0.26600
C568        C  0.74330390  0.11907204  0.09886334    -0.14700
C569        C  0.73781026  0.16376837  0.08549131     0.36000
C570        C  0.74004170  0.19640239  0.12325798    -0.26000
C571        C  0.74693657  0.18575050  0.17486317    -0.15300
C572        C  0.75368581  0.14121462  0.18834435     0.37000
N573        N  0.76140576  0.12827959  0.24040318    -0.89500
H574        H  0.75641989  0.07451627  0.16144720     0.18200
H575        H  0.73487049  0.23030753  0.11235141     0.18100
N576        N  0.72923892  0.17629657  0.03346691    -0.88600
H577        H  0.73408518  0.13730044  0.26254586     0.35500
H578        H  0.78876888  0.14518656  0.25393465     0.40600
H579        H  0.75395456  0.19769833  0.02166490     0.40200
H580        H  0.69926898  0.19341026  0.03267643     0.35100
C581        C  0.69701278  0.75235911  0.37598780    -0.26600
C582        C  0.69205782  0.74951127  0.32268411    -0.14700
C583        C  0.64937229  0.74426250  0.30200680     0.36000
C584        C  0.61244786  0.74610684  0.33438919    -0.26000
C585        C  0.61740867  0.75144351  0.38736184    -0.15300
C586        C  0.66008086  0.75298535  0.40842342     0.37000
N587        N  0.66594747  0.75696456  0.46268694    -0.89500
H588        H  0.72954123  0.75569122  0.39238282     0.18200
H589        H  0.57976058  0.74451475  0.31801129     0.18100
N590        N  0.64268709  0.73674288  0.24838049    -0.88600
H591        H  0.68347386  0.78559113  0.46983067     0.35500
H592        H  0.68507938  0.73039777  0.47513827     0.40600
H593        H  0.66091866  0.70898554  0.23776549     0.40200
H594        H  0.65438455  0.76351286  0.22765429     0.35100
C595        C  0.73474264  0.65209486  0.31714684    -0.26600
C596        C  0.76632968  0.68530091  0.32193017    -0.14700
C597        C  0.79810454  0.68243255  0.36106253     0.36000
C598        C  0.79854213  0.64633443  0.39346918    -0.26000
C599        C  0.76799336  0.61244535  0.38810402    -0.15300
C600        C  0.73528394  0.61560991  0.35004660     0.37000
N601        N  0.70350651  0.58186094  0.34298611    -0.89500
H602        H  0.71002904  0.65432583  0.28737432     0.18200
H603        H  0.82347172  0.64455244  0.42312761     0.18100
N604        N  0.82989676  0.71606070  0.36939779    -0.88600
H605        H  0.68552816  0.57861655  0.37700903     0.35500
H606        H  0.72032018  0.55240984  0.33614158     0.40600
H607        H  0.81326871  0.74582632  0.37469817     0.40200
H608        H  0.85009332  0.71851731  0.33705578     0.35100
C609        C  0.73096516  0.82989799  0.14959332    -0.26600
C610        C  0.76445706  0.83406105  0.18571708    -0.14700
C611        C  0.79135387  0.87162391  0.18485119     0.36000
C612        C  0.78337148  0.90469642  0.14833724    -0.26000
C613        C  0.74868341  0.90091213  0.11322724    -0.15300
C614        C  0.72308130  0.86225262  0.11328889     0.37000
N615        N  0.68938821  0.85413299  0.07619927    -0.89500
H616        H  0.71075321  0.80080211  0.14947636     0.18200
H617        H  0.80313615  0.93403678  0.14866027     0.18100
N618        N  0.82562460  0.87772487  0.22160587    -0.88600
H619        H  0.70305194  0.85645393  0.03953854     0.35500
H620        H  0.66386879  0.87696999  0.08033912     0.40600
H621        H  0.84861043  0.85240873  0.21737465     0.40200
H622        H  0.81187428  0.87565766  0.25833290     0.35100
C623        C  0.82349663  0.76797419  0.12788979    -0.26600
C624        C  0.83688899  0.76738363  0.17927491    -0.14700
C625        C  0.88232897  0.76598193  0.19075641     0.36000
C626        C  0.91329345  0.76444087  0.15035277    -0.26000
C627        C  0.89952500  0.76408474  0.09897443    -0.15300
C628        C  0.85416593  0.76748612  0.08773763     0.37000
N629        N  0.83935848  0.76920357  0.03538075    -0.89500
H630        H  0.78878337  0.76743816  0.11888446     0.18200
H631        H  0.94803690  0.76111206  0.15898721     0.18100
N632        N  0.89672169  0.76459541  0.24322870    -0.88600
H633        H  0.80501650  0.77141791  0.03370426     0.35500
H634        H  0.85141261  0.79803406  0.01912856     0.40600
H635        H  0.88705487  0.79393354  0.26072621     0.40200
H636        H  0.93106839  0.76318638  0.24506698     0.35100
C637        C  0.25954873  0.67981108  0.36178560    -0.26600
C638        C  0.26967181  0.66635948  0.31179009    -0.14700
C639        C  0.27653362  0.62118561  0.30215114     0.36000
C640        C  0.27068975  0.59046606  0.34192758    -0.26000
C641        C  0.25782539  0.60395722  0.39136260    -0.15300
C642        C  0.25408678  0.64935912  0.40148185     0.37000
N643        N  0.24424006  0.66482970  0.45214804    -0.89500
H644        H  0.25457111  0.71427870  0.36988638     0.18200
H645        H  0.27415084  0.55587236  0.33350095     0.18100
N646        N  0.28913517  0.60569926  0.25236875    -0.88600
H647        H  0.21517325  0.68339605  0.45054092     0.35500
H648        H  0.26962279  0.68549848  0.46354108     0.40600
H649        H  0.31834960  0.62117341  0.24179761     0.40200
H650        H  0.26469658  0.61469277  0.22618016     0.35100
C651        C  0.36426829  0.77640701  0.38452114    -0.26600
C652        C  0.40113767  0.74809234  0.38659154    -0.14700
C653        C  0.40490252  0.71423093  0.34987734     0.36000
C654        C  0.37156984  0.70950209  0.31261952    -0.26000
C655        C  0.33507968  0.73813373  0.31117543    -0.15300
C656        C  0.33112671  0.77158022  0.34831260     0.37000
N657        N  0.29387195  0.80108730  0.35111373    -0.89500
H658        H  0.36048901  0.80288580  0.41185774     0.18200
H659        H  0.37428642  0.68382839  0.28411822     0.18100
N660        N  0.44195418  0.68467308  0.35058093    -0.88600
H661        H  0.27926606  0.79703553  0.38717986     0.35500
H662        H  0.26948829  0.79344250  0.32468007     0.40600
H663        H  0.46979492  0.70263837  0.34037511     0.40200
H664        H  0.43851383  0.66059000  0.32248615     0.35100
C665        C  0.18688346  0.70701354  0.13176076    -0.26600
C666        C  0.19041245  0.73998179  0.16862692    -0.14700
C667        C  0.15688189  0.77273951  0.17200372     0.36000
C668        C  0.12106330  0.77159471  0.13776628    -0.26000
C669        C  0.11748891  0.73782036  0.10179758    -0.15300
C670        C  0.15128505  0.70594082  0.09818545     0.37000
N671        N  0.14960369  0.67231892  0.05991569    -0.89500
H672        H  0.21243909  0.68212686  0.12852848     0.18200
H673        H  0.09495826  0.79586158  0.14099250     0.18100
N674        N  0.15719036  0.80651633  0.21037447    -0.88600
H675        H  0.15028617  0.64194885  0.07846578     0.35500
H676        H  0.17783932  0.67459703  0.03705943     0.40600
H677        H  0.18359385  0.80262042  0.23552335     0.40200
H678        H  0.12884621  0.80294884  0.23274211     0.35100
C679        C  0.26107175  0.85279646  0.18901610    -0.26600
C680        C  0.25884690  0.81088697  0.16676505    -0.14700
C681        C  0.25635469  0.80732076  0.11282428     0.36000
C682        C  0.25462276  0.84553474  0.08267309    -0.26000
C683        C  0.25831322  0.88711579  0.10491883    -0.15300
C684        C  0.26192898  0.89086033  0.15850210     0.37000
N685        N  0.26821889  0.93311499  0.18139148    -0.89500
H686        H  0.26358382  0.85567042  0.23032859     0.18200
H687        H  0.25390614  0.84277768  0.04122341     0.18100
N688        N  0.25826018  0.76507796  0.08869372    -0.88600
H689        H  0.27096938  0.93026510  0.22120770     0.35500
H690        H  0.23994120  0.95192642  0.17425151     0.40600
H691        H  0.25640959  0.76814186  0.04876391     0.40200
H692        H  0.28896148  0.75110528  0.09687612     0.35100
C693        C  0.31928850  0.74048700  0.61972143    -0.26600
C694        C  0.32705375  0.73743771  0.67261097    -0.14700
C695        C  0.37101473  0.73382207  0.69029428     0.36000
C696        C  0.40603182  0.73661542  0.65548503    -0.26000
C697        C  0.39814037  0.74202541  0.60306695    -0.15300
C698        C  0.35452505  0.74282324  0.58489500     0.37000
N699        N  0.34599949  0.74836903  0.53125872    -0.89500
H700        H  0.28588728  0.74319771  0.60557480     0.18200
H701        H  0.43953533  0.73650154  0.66967570     0.18100
N702        N  0.38107481  0.72781145  0.74344640    -0.88600
H703        H  0.32699915  0.77679745  0.52645056     0.35500
H704        H  0.32741039  0.72178704  0.51891885     0.40600
H705        H  0.36408105  0.70046743  0.75682334     0.40200
H706        H  0.37025021  0.75531048  0.76362150     0.35100
C707        C  0.28112456  0.63800793  0.67609189    -0.26600
C708        C  0.25202962  0.67412389  0.67589216    -0.14700
C709        C  0.21770327  0.67585323  0.63965461     0.36000
C710        C  0.21284658  0.64177679  0.60492606    -0.26000
C711        C  0.24094085  0.60495913  0.60553334    -0.15300
C712        C  0.27567024  0.60318820  0.64141608     0.37000
N713        N  0.30441164  0.56591022  0.64492808    -0.89500
H714        H  0.30746135  0.63648387  0.70399086     0.18200
H715        H  0.18622883  0.64392094  0.57737540     0.18100
N716        N  0.18734291  0.71203179  0.63700050    -0.88600
H717        H  0.32073069  0.56216419  0.60984948     0.35500
H718        H  0.28524098  0.53817054  0.65138853     0.40600
H719        H  0.20513342  0.74090772  0.63248171     0.40200
H720        H  0.16951867  0.71378941  0.67126846     0.35100
C721        C  0.21927685  0.84977195  0.82145090    -0.26600
C722        C  0.25647840  0.82277515  0.81299105    -0.14700
C723        C  0.29581016  0.83166631  0.83950682     0.36000
C724        C  0.29676169  0.86615850  0.87441753    -0.26000
C725        C  0.25903015  0.89130155  0.88561344    -0.15300
C726        C  0.21997125  0.88352745  0.85802262     0.37000
N727        N  0.18033397  0.90787013  0.86773942    -0.89500
H728        H  0.18926026  0.84401125  0.80033626     0.18200
H729        H  0.32718752  0.87240457  0.89463844     0.18100
N730        N  0.33440474  0.80472092  0.83232363    -0.88600
H731        H  0.18631069  0.94092193  0.86029190     0.35500
H732        H  0.17213412  0.90434768  0.90648784     0.40600
H733        H  0.32730399  0.77332556  0.84570473     0.40200
H734        H  0.36069102  0.81603690  0.85433271     0.35100
C735        C  0.16164345  0.73576498  0.90959079    -0.26600
C736        C  0.11786370  0.74498501  0.89525860    -0.14700
C737        C  0.10924829  0.75953946  0.84474166     0.36000
C738        C  0.14442239  0.76340841  0.80965342    -0.26000
C739        C  0.18777637  0.75285110  0.82392586    -0.15300
C740        C  0.19633128  0.73915280  0.87458371     0.37000
N741        N  0.23964937  0.72678664  0.89098084    -0.89500
H742        H  0.16897799  0.72465321  0.94816768     0.18200
H743        H  0.13791872  0.77329372  0.77044149     0.18100
N744        N  0.06489060  0.76846579  0.82851745    -0.88600
H745        H  0.26008144  0.75385034  0.88717357     0.35500
H746        H  0.25142499  0.70183856  0.86703540     0.40600
H747        H  0.04787809  0.73885912  0.82926449     0.40200
H748        H  0.06444415  0.77927977  0.79045287     0.35100
C749        C  0.26686665  0.39730191  0.64483770    -0.26600
C750        C  0.23627051  0.39057564  0.60511187    -0.14700
C751        C  0.20890772  0.35316140  0.60797273     0.36000
C752        C  0.21374065  0.32321379  0.64822355    -0.26000
C753        C  0.24567068  0.32868188  0.68609297    -0.15300
C754        C  0.27170704  0.36679587  0.68520696     0.37000
N755        N  0.30240281  0.37571724  0.72531348    -0.89500
H756        H  0.28724075  0.42621605  0.64447693     0.18200
H757        H  0.19294900  0.29455242  0.64916370     0.18100
N758        N  0.17573509  0.34512536  0.57023319    -0.88600
H759        H  0.32545009  0.35015381  0.72675441     0.35500
H760        H  0.28518992  0.37628410  0.76010662     0.40600
H761        H  0.14526442  0.34340357  0.58885053     0.40200
H762        H  0.18230288  0.31470563  0.55336571     0.35100
C763        C  0.31329542  0.26702457  0.63561080    -0.26600
C764        C  0.32162037  0.26304735  0.68821011    -0.14700
C765        C  0.36525613  0.25526417  0.70488011     0.36000
C766        C  0.39909138  0.24966017  0.66861867    -0.26000
C767        C  0.39007539  0.25255634  0.61608110    -0.15300
C768        C  0.34690935  0.26243280  0.59967964     0.37000
N769        N  0.33535738  0.26392064  0.54655465    -0.89500
H770        H  0.27997504  0.27027215  0.62170604     0.18200
H771        H  0.43204421  0.24131188  0.68142068     0.18100
N772        N  0.37497675  0.25145987  0.75845763    -0.88600
H773        H  0.34137212  0.23298996  0.53103965     0.35500
H774        H  0.35522770  0.28687417  0.52808569     0.40600
H775        H  0.39865500  0.27479461  0.76754391     0.40200
H776        H  0.38878659  0.22044841  0.76491340     0.35100
C777        C  0.13673105  0.28569602  0.89913589    -0.26600
C778        C  0.10169887  0.25635133  0.89350303    -0.14700
C779        C  0.10561808  0.22130870  0.85829692     0.36000
C780        C  0.14314653  0.21897135  0.82674782    -0.26000
C781        C  0.17624037  0.25066222  0.83008003    -0.15300
C782        C  0.17380411  0.28332464  0.86780160     0.37000
N783        N  0.20860056  0.31464586  0.87311791    -0.89500
H784        H  0.13465100  0.31155847  0.92753842     0.18200
H785        H  0.14565006  0.19344604  0.79803320     0.18100
N786        N  0.07178126  0.18935322  0.85120141    -0.88600
H787        H  0.23696781  0.29757706  0.88444876     0.35500
H788        H  0.20136416  0.33700139  0.90232188     0.40600
H789        H  0.04431583  0.19568798  0.87423936     0.40200
H790        H  0.08462179  0.15905141  0.86264546     0.35100
C791        C  0.24095413  0.18192053  0.87556991    -0.26600
C792        C  0.24282538  0.17791957  0.82197522    -0.14700
C793        C  0.24531708  0.13560702  0.80003554     0.36000
C794        C  0.24953834  0.09861693  0.83215616    -0.26000
C795        C  0.24899918  0.10306319  0.88562916    -0.15300
C796        C  0.24311918  0.14491333  0.90734544     0.37000
N797        N  0.24151717  0.15016666  0.96191163    -0.89500
H798        H  0.23930671  0.21401301  0.89308226     0.18200
H799        H  0.25420633  0.06640208  0.81553681     0.18100
N800        N  0.24426253  0.13053067  0.74525942    -0.88600
H801        H  0.21176495  0.16568958  0.97133236     0.35500
H802        H  0.26713888  0.17078674  0.97275545     0.40600
H803        H  0.21351434  0.14176282  0.73265411     0.40200
H804        H  0.24638704  0.09742169  0.73532959     0.35100
C805        C  0.62579014  0.27351484  0.68851167    -0.26600
C806        C  0.66981436  0.26269262  0.67675679    -0.14700
C807        C  0.68008777  0.24723567  0.62695049     0.36000
C808        C  0.64640749  0.24289187  0.59076187    -0.26000
C809        C  0.60205547  0.25233639  0.60266629    -0.15300
C810        C  0.59179411  0.26862531  0.65202662     0.37000
N811        N  0.54692172  0.27843849  0.66571691    -0.89500
H812        H  0.61772186  0.28446372  0.72694492     0.18200
H813        H  0.65500253  0.23019146  0.55319427     0.18100
N814        N  0.72367390  0.23317807  0.61231246    -0.88600
H815        H  0.54511279  0.29063832  0.70313353     0.35500
H816        H  0.52962738  0.24900792  0.66570744     0.40600
H817        H  0.74587115  0.23468927  0.64266106     0.40200
H818        H  0.73486952  0.25452124  0.58383554     0.35100
C819        C  0.71892181  0.40437485  0.64709738    -0.26600
C820        C  0.75318541  0.39972299  0.61122662    -0.14700
C821        C  0.77915852  0.36114399  0.61112945     0.36000
C822        C  0.77106635  0.32834297  0.64679294    -0.26000
C823        C  0.73763089  0.33291216  0.68319291    -0.15300
C824        C  0.71148305  0.37151304  0.68391531     0.37000
N825        N  0.67907795  0.37906952  0.72295200    -0.89500
H826        H  0.69951948  0.43431607  0.64811693     0.18200
H827        H  0.79195429  0.29936365  0.64685421     0.18100
N828        N  0.81440621  0.35530759  0.57499776    -0.88600
H829        H  0.69460103  0.37712729  0.75863944     0.35500
H830        H  0.65579383  0.35426996  0.72104707     0.40600
H831        H  0.80873194  0.32658500  0.55440020     0.40200
H832        H  0.84366066  0.35106963  0.59553788     0.35100
C833        C  0.76957289  0.11649941  0.85525993    -0.26600
C834        C  0.73364567  0.11415110  0.88904076    -0.14700
C835        C  0.70228569  0.14865280  0.88974847     0.36000
C836        C  0.70719988  0.18453003  0.85716998    -0.26000
C837        C  0.74227845  0.18662576  0.82257697    -0.15300
C838        C  0.77349878  0.15209183  0.82103635     0.37000
N839        N  0.80766542  0.15185894  0.78314704    -0.89500
H840        H  0.79333618  0.08985314  0.85373944     0.18200
H841        H  0.68276066  0.21063160  0.85810436     0.18100
N842        N  0.66498931  0.14729576  0.92351826    -0.88600
H843        H  0.80366126  0.12411672  0.76024210     0.35500
H844        H  0.83779666  0.14852613  0.80208172     0.40600
H845        H  0.66537954  0.17524456  0.94657997     0.40200
H846        H  0.63648652  0.14857099  0.90113880     0.35100
C847        C  0.85122307  0.23962680  0.81646437    -0.26600
C848        C  0.80952927  0.25730144  0.82842730    -0.14700
C849        C  0.80267836  0.27644131  0.87682056     0.36000
C850        C  0.83688794  0.27707993  0.91233943    -0.26000
C851        C  0.87903565  0.25968171  0.90096391    -0.15300
C852        C  0.88586517  0.23966034  0.85265906     0.37000
N853        N  0.92789393  0.22061497  0.83986333    -0.89500
H854        H  0.85678218  0.22600556  0.77864085     0.18200
H855        H  0.83042229  0.29255118  0.94901264     0.18100
N856        N  0.76157262  0.29679701  0.89034327    -0.88600
H857        H  0.92766673  0.20854106  0.80237264     0.35500
H858        H  0.93259395  0.19345925  0.86379101     0.40600
H859        H  0.73673239  0.27350739  0.88745159     0.40200
H860        H  0.75503608  0.32190572  0.86409129     0.35100
C861        C  0.74383639  0.69319167  0.62400619    -0.26600
C862        C  0.74711737  0.68278698  0.67637713    -0.14700
C863        C  0.75254407  0.63832951  0.69041243     0.36000
C864        C  0.75548852  0.60559123  0.65231408    -0.26000
C865        C  0.75375844  0.61632081  0.59992549    -0.15300
C866        C  0.74708328  0.66079852  0.58599551     0.37000
N867        N  0.74309244  0.67413078  0.53347067    -0.89500
H868        H  0.74008788  0.72705564  0.61230292     0.18200
H869        H  0.76100297  0.57185568  0.66375148     0.18100
N870        N  0.75529346  0.62630699  0.74341780    -0.88600
H871        H  0.71820475  0.65585200  0.51636707     0.35500
H872        H  0.77274643  0.66784954  0.51437997     0.40600
H873        H  0.78538478  0.61016193  0.74919102     0.40200
H874        H  0.73010481  0.60416638  0.75124931     0.35100
C875        C  0.61191768  0.71973672  0.63967084    -0.26600
C876        C  0.61058607  0.75560276  0.60583681    -0.14700
C877        C  0.64043101  0.79040418  0.61345190     0.36000
C878        C  0.67212736  0.78759325  0.65169031    -0.26000
C879        C  0.67506701  0.75120777  0.68389093    -0.15300
C880        C  0.64374363  0.71720127  0.67896634     0.37000
N881        N  0.64259396  0.68047025  0.71343685    -0.89500
H882        H  0.58869379  0.69333044  0.63514305     0.18200
H883        H  0.69551239  0.81400331  0.65549138     0.18100
N884        N  0.63882916  0.82920859  0.58246960    -0.88600
H885        H  0.65064002  0.65241291  0.69235902     0.35500
H886        H  0.66593219  0.68332452  0.74250782     0.40600
H887        H  0.66933435  0.83272273  0.56430785     0.40200
H888        H  0.63386531  0.85612716  0.60662678     0.35100
C889        C  0.82572556  0.72643382  0.85582170    -0.26600
C890        C  0.82602023  0.75844333  0.81764281    -0.14700
C891        C  0.86179638  0.78799585  0.81460551     0.36000
C892        C  0.89704105  0.78356110  0.84949073    -0.26000
C893        C  0.89693445  0.75030246  0.88667469    -0.15300
C894        C  0.85999352  0.72278960  0.89085257     0.37000
N895        N  0.85706491  0.69094536  0.93116340    -0.89500
H896        H  0.79823917  0.70414802  0.85877964     0.18200
H897        H  0.92518764  0.80491324  0.84620841     0.18100
N898        N  0.86403532  0.82179632  0.77627444    -0.88600
H899        H  0.85323856  0.66012537  0.91446781     0.35500
H900        H  0.82878067  0.69786415  0.95274338     0.40600
H901        H  0.83667210  0.82136025  0.75217440     0.40200
H902        H  0.89141840  0.81511234  0.75311479     0.35100
C903        C  0.75984078  0.86986540  0.81046189    -0.26600
C904        C  0.75476415  0.82584270  0.82538325    -0.14700
C905        C  0.74780275  0.81643826  0.87758339     0.36000
C906        C  0.74693582  0.85040213  0.91380518    -0.26000
C907        C  0.75105011  0.89466375  0.89931412    -0.15300
C908        C  0.75767319  0.90426364  0.84683300     0.37000
N909        N  0.75980475  0.94878845  0.82988694    -0.89500
H910        H  0.76433883  0.87764917  0.77023554     0.18200
H911        H  0.74115400  0.84196819  0.95362121     0.18100
N912        N  0.73921771  0.77251656  0.89378646    -0.88600
H913        H  0.73426161  0.95417417  0.80376828     0.35500
H914        H  0.78962481  0.95293030  0.81043174     0.40600
H915        H  0.70792103  0.77201321  0.91055558     0.40200
H916        H  0.76206195  0.76416975  0.92216567     0.35100
loop_ 
_geom_bond_atom_site_label_1 
_geom_bond_atom_site_label_2 
_geom_bond_distance 
_geom_bond_site_symmetry_2 
_ccdc_geom_bond_type 
C1            C2   1.413       .  A
C1            C6   1.403       .  A
C1          C904   1.499       .  S
C2            C3   1.411       .  A
C2          C890   1.480       .  S
C3            C4   1.407       .  A
C3            H8   1.084       .  S
C4            C5   1.420       .  A
C4          C862   1.505       .  S
C5            C6   1.414       .  A
C5          C879   1.485       .  S
C6            H7   1.084       .  S
C9           C10   1.412       .  A
C9           C14   1.401       .  A
C9          C848   1.487       .  S
C10          C11   1.409       .  A
C10         C837   1.481       .  S
C11          C12   1.403       .  A
C11          H16   1.084       .  S
C12          C13   1.413       .  A
C12         C806   1.493       .  S
C13          C14   1.407       .  A
C13         C823   1.474       .  S
C14          H15   1.085       .  S
C17          C18   1.409       .  A
C17          C22   1.404       .  A
C17         C781   1.472       .  S
C18          C19   1.402       .  A
C18         C792   1.494       .  S
C19          C20   1.410       .  A
C19          H24   1.084       .  S
C20          C21   1.420       .  A
C20         C764   1.484       .  S
C21          C22   1.399       .  A
C21         C753   1.491       .  S
C22          H23   1.085       .  S
C25          C26   1.415       .  A
C25          C30   1.402       .  A
C25         C739   1.484       .  S
C26          C27   1.407       .  A
C26         C722   1.489       .  S
C27          C28   1.404       .  A
C27          H32   1.084       .  S
C28          C29   1.410       .  A
C28         C694   1.486       .  S
C29          C30   1.404       .  A
C29         C708   1.480       .  S
C30          H31   1.085       .  S
C33          C34   1.416       .  A
C33          C38   1.411       .  A
C33         C666   1.486       .  S
C34          C35   1.404       .  A
C34         C680   1.495       .  S
C35          C36   1.405       .  A
C35          H40   1.085       .  S
C36          C37   1.412       .  A
C36         C655   1.481       .  S
C37          C38   1.406       .  A
C37         C638   1.493       .  S
C38          H39   1.084       .  S
C41          C42   1.415       .  A
C41          C46   1.404       .  A
C41         C610   1.480       .  S
C42          C43   1.404       .  A
C42         C624   1.489       .  S
C43          C44   1.407       .  A
C43          H48   1.084       .  S
C44          C45   1.409       .  A
C44         C596   1.478       .  S
C45          C46   1.401       .  A
C45         C582   1.487       .  S
C46          H47   1.085       .  S
C49          C50   1.410       .  A
C49          C54   1.411       .  A
C49         C554   1.475       .  S
C50          C51   1.398       .  A
C50         C571   1.496       .  S
C51          C52   1.410       .  A
C51          H56   1.085       .  S
C52          C53   1.415       .  A
C52         C540   1.472       .  S
C53          C54   1.403       .  A
C53         C529   1.501       .  S
C54          H55   1.084       .  S
O57         Cr75   1.983       .  S
O57          C65   1.257       .  A
O58         Cr75   1.978       .  S
O58          C59   1.263       .  A
C59         C652   1.491       .  S
C59          O60   1.270       .  A
O60         Cr76   2.010       .  S
O61         Cr76   2.039       .  S
O61          C62   1.273       .  A
C62         C585   1.473       .  S
C62          O63   1.259       .  A
O63         Cr77   1.968       .  S
O64         Cr77   2.005       .  S
O64          C65   1.264       .  A
C65         C512   1.498       .  S
O66         Cr75   2.007       .  S
O66          C74   1.266       .  A
O67         Cr75   1.957       .  S
O67          C68   1.254       .  A
C68         C697   1.468       .  S
C68          O69   1.268       .  A
O69         Cr76   2.029       .  S
O70         Cr76   2.023       .  S
O70          C71   1.269       .  A
C71         C876   1.487       .  S
C71          O72   1.257       .  A
O72         Cr77   1.976       .  S
O73         Cr77   1.970       .  S
O73          C74   1.256       .  A
C74         C498   1.474       .  S
Cr75         O78   1.760       .  S
Cr76         O78   1.773       .  S
Cr77         O78   1.761       .  S
O79         Cr97   1.983   1_554  S
O79          C87   1.258       .  A
O80         Cr97   2.000   1_554  S
O80          C81   1.266       .  A
C81         C568   1.495       .  S
C81          O82   1.272       .  A
O82         Cr98   2.018   1_554  S
O83         Cr98   2.052   1_564  S
O83          C84   1.274       .  A
C84         C613   1.475       .  S
C84          O85   1.251       .  A
O85         Cr99   1.944       .  S
O86         Cr99   2.011       .  S
O86          C87   1.266   1_565  A
C87         C473   1.487       .  S
O88         Cr97   2.004       .  S
O88          C96   1.266   1_545  A
O89         Cr97   1.950       .  S
O89          C90   1.251       .  A
C90         C834   1.478       .  S
C90          O91   1.271       .  A
O91         Cr98   2.044       .  S
O92         Cr98   2.028   1_565  S
O92          C93   1.271       .  A
C93         C907   1.500       .  S
C93          O94   1.263       .  A
O94         Cr99   1.998   1_556  S
O95         Cr99   1.963   1_556  S
O95          C96   1.254       .  A
C96         C484   1.476       .  S
Cr97        O100   1.761   1_556  S
Cr98        O100   1.774   1_556  S
Cr99        O100   1.759   1_565  S
O101       Cr119   1.999       .  S
O101        C109   1.265   1_545  A
O102       Cr119   1.971       .  S
O102        C103   1.261       .  A
C103        C795   1.474       .  S
C103        O104   1.274       .  A
O104       Cr120   2.038   1_545  S
O105       Cr120   2.006       .  S
O105        C106   1.266       .  A
C106        C725   1.478       .  S
C106        O107   1.261       .  A
O107       Cr121   1.978       .  S
O108       Cr121   1.995       .  S
O108        C109   1.259       .  A
C109        C445   1.487       .  S
O110       Cr119   1.988   1_554  S
O110        C118   1.259       .  A
O111       Cr119   1.970   1_554  S
O111        C112   1.258       .  A
C112        C456   1.486       .  S
C112        O113   1.268       .  A
O113       Cr120   2.016   1_544  S
O114       Cr120   2.039   1_554  S
O114        C115   1.273       .  A
C115        C683   1.473       .  S
C115        O116   1.256       .  A
O116       Cr121   1.965   1_554  S
O117       Cr121   2.006   1_554  S
O117        C118   1.267   1_565  A
C118        C428   1.498       .  S
Cr119       O122   1.752   1_545  S
Cr120       O122   1.770       .  S
Cr121       O122   1.757       .  S
O123       Cr141   2.021       .  S
O123        C131   1.270       .  A
O124       Cr141   1.946       .  S
O124        C125   1.254       .  A
C125        C543   1.470       .  S
C125        O126   1.268       .  A
O126       Cr142   2.020       .  S
O127       Cr142   2.021       .  S
O127        C128   1.267       .  A
C128        C414   1.498       .  S
C128        O129   1.258       .  A
O129       Cr143   1.977       .  S
O130       Cr143   1.986       .  S
O130        C131   1.261       .  A
C131        C400   1.489       .  S
O132       Cr141   1.991       .  S
O132        C140   1.257       .  A
O133       Cr141   1.992       .  S
O133        C134   1.263       .  A
C134        C809   1.496       .  S
C134        O135   1.269       .  A
O135       Cr142   2.016       .  S
O136       Cr142   2.023       .  S
O136        C137   1.271       .  A
C137        C767   1.464       .  S
C137        O138   1.259       .  A
O138       Cr143   1.966       .  S
O139       Cr143   1.995       .  S
O139        C140   1.263       .  A
C140        C386   1.480       .  S
Cr141       O144   1.757       .  S
Cr142       O144   1.773       .  S
Cr143       O144   1.763       .  S
C145        C403   1.574       .  S
C145        C431   1.576   1_545  S
C145        C470   1.581       .  S
C145        C515   1.572   1_545  S
C146        C389   1.576   1_565  S
C146        C442   1.587       .  S
C146        C487   1.578       .  S
C146        C501   1.572       .  S
O147       Cr165   2.004       .  S
O147        C155   1.267       .  A
O148       Cr165   1.941       .  S
O148        C149   1.254       .  A
C149        C599   1.470       .  S
C149        O150   1.275       .  A
O150       Cr166   2.045       .  S
O151       Cr166   2.015       .  S
O151        C152   1.269       .  A
C152        C526   1.494       .  S
C152        O153   1.264       .  A
O153       Cr167   2.001       .  S
O154       Cr167   1.982       .  S
O154        C155   1.255       .  A
C155        C372   1.492       .  S
O156       Cr165   1.964       .  S
O156        C164   1.255       .  A
O157       Cr165   2.002       .  S
O157        C158   1.263       .  A
C158        C865   1.492       .  S
C158        O159   1.268       .  A
O159       Cr166   2.015       .  S
O160       Cr166   2.042       .  S
O160        C161   1.274       .  A
C161        C820   1.471       .  S
C161        O162   1.254       .  A
O162       Cr167   1.943       .  S
O163       Cr167   2.015       .  S
O163        C164   1.270       .  A
C164        C361   1.487       .  S
Cr165       O168   1.755       .  S
Cr166       O168   1.766       .  S
Cr167       O168   1.758       .  S
O169       Cr187   1.967   1_554  S
O169        C177   1.256       .  A
O170       Cr187   1.992   1_554  S
O170        C171   1.262       .  A
C171        C627   1.478       .  S
C171        O172   1.265       .  A
O172       Cr188   2.001   1_654  S
O173       Cr188   2.049   1_554  S
O173        C174   1.273       .  A
C174        C669   1.475       .  S
C174        O175   1.251       .  A
O175       Cr189   1.942       .  S
O176       Cr189   2.012       .  S
O176        C177   1.268   1_455  A
C177        C333   1.467       .  S
O178       Cr187   2.001       .  S
O178        C186   1.262   1_655  A
O179       Cr187   1.946       .  S
O179        C180   1.253       .  A
C180        C893   1.477       .  S
C180        O181   1.276       .  A
O181       Cr188   2.059   1_655  S
O182       Cr188   1.997       .  S
O182        C183   1.267       .  A
C183        C736   1.487       .  S
C183        O184   1.266       .  A
O184       Cr189   2.001   1_556  S
O185       Cr189   1.969   1_556  S
O185        C186   1.257       .  A
C186        C344   1.488       .  S
Cr187       O190   1.756   1_655  S
Cr188       O190   1.772       .  S
Cr189       O190   1.750   1_554  S
O191       Cr209   1.982   1_556  S
O191        C199   1.258       .  A
O192       Cr209   1.980   1_556  S
O192        C193   1.261       .  A
C193        C851   1.496       .  S
C193        O194   1.270       .  A
O194       Cr210   2.019   1_556  S
O195       Cr210   2.037   1_456  S
O195        C196   1.272       .  A
C196        C778   1.469       .  S
C196        O197   1.255       .  A
O197       Cr211   1.944       .  S
O198       Cr211   2.014       .  S
O198        C199   1.267   1_455  A
C199        C302   1.498       .  S
O200       Cr209   2.003       .  S
O200        C208   1.266   1_655  A
O201       Cr209   1.937       .  S
O201        C202   1.254       .  A
C202        C557   1.470       .  S
C202        O203   1.272       .  A
O203       Cr210   2.035       .  S
O204       Cr210   2.019   1_455  S
O204        C205   1.269       .  A
C205        C316   1.491       .  S
C205        O206   1.261       .  A
O206       Cr211   1.988   1_554  S
O207       Cr211   1.974   1_554  S
O207        C208   1.255       .  A
C208        C288   1.463       .  S
Cr209       O212   1.753       .  S
Cr210       O212   1.773       .  S
Cr211       O212   1.753   1_456  S
O213       Cr231   2.018       .  S
O213        C221   1.271       .  A
O214       Cr231   1.945       .  S
O214        C215   1.255       .  A
C215        C711   1.479       .  S
C215        O216   1.275       .  A
O216       Cr232   2.045       .  S
O217       Cr232   2.021       .  S
O217        C218   1.267       .  A
C218        C750   1.499       .  S
C218        O219   1.258       .  A
O219       Cr233   1.986       .  S
O220       Cr233   1.966       .  S
O220        C221   1.257       .  A
C221        C246   1.489       .  S
O222       Cr231   1.982       .  S
O222        C230   1.257       .  A
O223       Cr231   1.993       .  S
O223        C224   1.264       .  A
C224        C641   1.492       .  S
C224        O225   1.269       .  A
O225       Cr232   2.012       .  S
O226       Cr232   2.063       .  S
O226        C227   1.280       .  A
C227        C274   1.487       .  S
C227        O228   1.257       .  A
O228       Cr233   1.945       .  S
O229       Cr233   1.998       .  S
O229        C230   1.263       .  A
C230        C263   1.485       .  S
Cr231       O234   1.757       .  S
Cr232       O234   1.768       .  S
Cr233       O234   1.754       .  S
C235        C260   1.575   1_655  S
C235        C291   1.569   1_655  S
C235        C330   1.568       .  S
C235        C375   1.573       .  S
C236        C249   1.559       .  S
C236        C305   1.581       .  S
C236        C347   1.563       .  S
C236        C358   1.568   1_455  S
C237        C238   1.413       .  A
C237        C242   1.406       .  A
C237        C319   1.495       .  S
C238        C239   1.407       .  A
C238        C459   1.481       .  S
C239        C240   1.402       .  A
C239        H244   1.085       .  S
C240        C241   1.414       .  A
C240        C417   1.485       .  S
C241        C242   1.413       .  A
C241        C277   1.494       .  S
C242        H243   1.084       .  S
C245        C246   1.397       .  A
C245        C250   1.399       .  A
C245        H252   1.084       .  S
C246        C247   1.414       .  A
C247        C248   1.405       .  A
C247        N254   1.432       .  S
C248        C249   1.410       .  A
C248        H253   1.079       .  S
C249        C250   1.434       .  A
C250        N251   1.435       .  S
N251        H255   1.046   1_455  S
N251        H256   1.045       .  S
N254        H257   1.046       .  S
N254        H258   1.046       .  S
C259        C260   1.421       .  A
C259        C264   1.390       .  A
C259        H266   1.079       .  S
C260        C261   1.424       .  A
C261        C262   1.413       .  A
C261        N268   1.429       .  S
C262        C263   1.407       .  A
C262        H267   1.084       .  S
C263        C264   1.403       .  A
C264        N265   1.434       .  S
N265        H269   1.046       .  S
N265        H270   1.046       .  S
N268        H271   1.046       .  S
N268        H272   1.046       .  S
C273        C274   1.406       .  A
C273        C278   1.394       .  A
C273        H280   1.084       .  S
C274        C275   1.411       .  A
C275        C276   1.418       .  A
C275        N282   1.436       .  S
C276        C277   1.412       .  A
C276        H281   1.082       .  S
C277        C278   1.405       .  A
C278        N279   1.433       .  S
N279        H283   1.046       .  S
N279        H284   1.046       .  S
N282        H285   1.045       .  S
N282        H286   1.046       .  S
C287        C288   1.382       .  A
C287        C292   1.391       .  A
C287        H294   1.085       .  S
C288        C289   1.412   1_455  A
C289        C290   1.405       .  A
C289        N296   1.431       .  S
C290        C291   1.415   1_655  A
C290        H295   1.076       .  S
C291        C292   1.434       .  A
C292        N293   1.429       .  S
N293        H297   1.046       .  S
N293        H298   1.046       .  S
N296        H299   1.046   1_655  S
N296        H300   1.042       .  S
C301        C302   1.401   1_455  A
C301        C306   1.408       .  A
C301        H308   1.084       .  S
C302        C303   1.410       .  A
C303        C304   1.406       .  A
C303        N310   1.433       .  S
C304        C305   1.421   1_655  A
C304        H309   1.080       .  S
C305        C306   1.428       .  A
C306        N307   1.428       .  S
N307        H311   1.046       .  S
N307        H312   1.046       .  S
N310        H313   1.046       .  S
N310        H314   1.046       .  S
C315        C316   1.405       .  A
C315        C320   1.408       .  A
C315        H322   1.084       .  S
C316        C317   1.419       .  A
C317        C318   1.404       .  A
C317        N324   1.439       .  S
C318        C319   1.400       .  A
C318        H323   1.084       .  S
C319        C320   1.417       .  A
C320        N321   1.432       .  S
N321        H325   1.044       .  S
N321        H326   1.046       .  S
N324        H327   1.045       .  S
N324        H328   1.046       .  S
C329        C330   1.407   1_455  A
C329        C334   1.405       .  A
C329        H336   1.072       .  S
C330        C331   1.440       .  A
C331        C332   1.396       .  A
C331        N338   1.433       .  S
C332        C333   1.390       .  A
C332        H337   1.084       .  S
C333        C334   1.404   1_655  A
C334        N335   1.431       .  S
N335        H339   1.046       .  S
N335        H340   1.045       .  S
N338        H341   1.043       .  S
N338        H342   1.041       .  S
C343        C344   1.401       .  A
C343        C348   1.397       .  A
C343        H350   1.084       .  S
C344        C345   1.412   1_455  A
C345        C346   1.394       .  A
C345        N352   1.432       .  S
C346        C347   1.419   1_655  A
C346        H351   1.083       .  S
C347        C348   1.439       .  A
C348        N349   1.436       .  S
N349        H353   1.039       .  S
N349        H354   1.037       .  S
N352        H355   1.045       .  S
N352        H356   1.045       .  S
C357        C358   1.414       .  A
C357        C362   1.405       .  A
C357        H364   1.080       .  S
C358        C359   1.426       .  A
C359        C360   1.399       .  A
C359        N366   1.433       .  S
C360        C361   1.398       .  A
C360        H365   1.084       .  S
C361        C362   1.414       .  A
C362        N363   1.433       .  S
N363        H367   1.046       .  S
N363        H368   1.046       .  S
N366        H369   1.046       .  S
N366        H370   1.046       .  S
C371        C372   1.396       .  A
C371        C376   1.392       .  A
C371        H378   1.084       .  S
C372        C373   1.421       .  A
C373        C374   1.410       .  A
C373        N380   1.432       .  S
C374        C375   1.413       .  A
C374        H379   1.076       .  S
C375        C376   1.427       .  A
C376        N377   1.431       .  S
N377        H381   1.046   1_655  S
N377        H382   1.046       .  S
N380        H383   1.046       .  S
N380        H384   1.045       .  S
C385        C386   1.410       .  A
C385        C390   1.421       .  A
C385        H392   1.083       .  S
C386        C387   1.398       .  A
C387        C388   1.389       .  A
C387        N394   1.434       .  S
C388        C389   1.424       .  A
C388        H393   1.080   1_545  S
C389        C390   1.418       .  A
C390        N391   1.434       .  S
N391        H395   1.044       .  S
N391        H396   1.046       .  S
N394        H397   1.046       .  S
N394        H398   1.046       .  S
C399        C400   1.398       .  A
C399        C404   1.410       .  A
C399        H406   1.084       .  S
C400        C401   1.407       .  A
C401        C402   1.405       .  A
C401        N408   1.429       .  S
C402        C403   1.414       .  A
C402        H407   1.081       .  S
C403        C404   1.432       .  A
C404        N405   1.432       .  S
N405        H409   1.045       .  S
N405        H410   1.046   1_545  S
N408        H411   1.046       .  S
N408        H412   1.045       .  S
C413        C414   1.413       .  A
C413        C418   1.393       .  A
C413        H420   1.082       .  S
C414        C415   1.419       .  A
C415        C416   1.410       .  A
C415        N422   1.431       .  S
C416        C417   1.407       .  A
C416        H421   1.084       .  S
C417        C418   1.405       .  A
C418        N419   1.433       .  S
N419        H423   1.044       .  S
N419        H424   1.045       .  S
N422        H425   1.046       .  S
N422        H426   1.045       .  S
C427        C428   1.398   1_565  A
C427        C432   1.400       .  A
C427        H434   1.084       .  S
C428        C429   1.416       .  A
C429        C430   1.404       .  A
C429        N436   1.432       .  S
C430        C431   1.418   1_545  A
C430        H435   1.079       .  S
C431        C432   1.442       .  A
C432        N433   1.440       .  S
N433        H437   1.046       .  S
N433        H438   1.033       .  S
N436        H439   1.045       .  S
N436        H440   1.045       .  S
C441        C442   1.424   1_545  A
C441        C446   1.384       .  A
C441        H448   1.077       .  S
C442        C443   1.425       .  A
C443        C444   1.422       .  A
C443        N450   1.430       .  S
C444        C445   1.410       .  A
C444        H449   1.084       .  S
C445        C446   1.404   1_565  A
C446        N447   1.435       .  S
N447        H451   1.046       .  S
N447        H452   1.044       .  S
N450        H453   1.045       .  S
N450        H454   1.046       .  S
C455        C456   1.409       .  A
C455        C460   1.389       .  A
C455        H462   1.084       .  S
C456        C457   1.413       .  A
C457        C458   1.415       .  A
C457        N464   1.436       .  S
C458        C459   1.408       .  A
C458        H463   1.083       .  S
C459        C460   1.401       .  A
C460        N461   1.434       .  S
N461        H465   1.046       .  S
N461        H466   1.045       .  S
N464        H467   1.046       .  S
N464        H468   1.045       .  S
C469        C470   1.419   1_565  A
C469        C474   1.408       .  A
C469        H476   1.079       .  S
C470        C471   1.447       .  A
C471        C472   1.405       .  A
C471        N478   1.438       .  S
C472        C473   1.393       .  A
C472        H477   1.084       .  S
C473        C474   1.404   1_545  A
C474        N475   1.432       .  S
N475        H479   1.046       .  S
N475        H480   1.046       .  S
N478        H481   1.035       .  S
N478        H482   1.045       .  S
C483        C484   1.405   1_545  A
C483        C488   1.410       .  A
C483        H490   1.084       .  S
C484        C485   1.403       .  A
C485        C486   1.389       .  A
C485        N492   1.434       .  S
C486        C487   1.426       .  A
C486        H491   1.083       .  S
C487        C488   1.433   1_565  A
C488        N489   1.436       .  S
N489        H493   1.046       .  S
N489        H494   1.033       .  S
N492        H495   1.046       .  S
N492        H496   1.045       .  S
C497        C498   1.387       .  A
C497        C502   1.392       .  A
C497        H504   1.085       .  S
C498        C499   1.417       .  A
C499        C500   1.409       .  A
C499        N506   1.430       .  S
C500        C501   1.407       .  A
C500        H505   1.078       .  S
C501        C502   1.430       .  A
C502        N503   1.428       .  S
N503        H507   1.046   1_565  S
N503        H508   1.045       .  S
N506        H509   1.045       .  S
N506        H510   1.045       .  S
C511        C512   1.402       .  A
C511        C516   1.404       .  A
C511        H518   1.084       .  S
C512        C513   1.417       .  A
C513        C514   1.410       .  A
C513        N520   1.438       .  S
C514        C515   1.416       .  A
C514        H519   1.080       .  S
C515        C516   1.427       .  A
C516        N517   1.433       .  S
N517        H521   1.046       .  S
N517        H522   1.046   1_565  S
N520        H523   1.047       .  S
N520        H524   1.044       .  S
C525        C526   1.405       .  A
C525        C530   1.410       .  A
C525        H532   1.084       .  S
C526        C527   1.415       .  A
C527        C528   1.406       .  A
C527        N534   1.433       .  S
C528        C529   1.402       .  A
C528        H533   1.084       .  S
C529        C530   1.420       .  A
C530        N531   1.433       .  S
N531        H535   1.046       .  S
N531        H536   1.043       .  S
N534        H537   1.045       .  S
N534        H538   1.046       .  S
C539        C540   1.396       .  A
C539        C544   1.388       .  A
C539        H546   1.085       .  S
C540        C541   1.411       .  A
C541        C542   1.410       .  A
C541        N548   1.436       .  S
C542        C543   1.404       .  A
C542        H547   1.084       .  S
C543        C544   1.412       .  A
C544        N545   1.434       .  S
N545        H549   1.045       .  S
N545        H550   1.045       .  S
N548        H551   1.046       .  S
N548        H552   1.045       .  S
C553        C554   1.407       .  A
C553        C558   1.410       .  A
C553        H560   1.083       .  S
C554        C555   1.405       .  A
C555        C556   1.392       .  A
C555        N562   1.439       .  S
C556        C557   1.404       .  A
C556        H561   1.084       .  S
C557        C558   1.408       .  A
C558        N559   1.436       .  S
N559        H563   1.046       .  S
N559        H564   1.045       .  S
N562        H565   1.046       .  S
N562        H566   1.046       .  S
C567        C568   1.406       .  A
C567        C572   1.410       .  A
C567        H574   1.084       .  S
C568        C569   1.417       .  A
C569        C570   1.404       .  A
C569        N576   1.433       .  S
C570        C571   1.400       .  A
C570        H575   1.084       .  S
C571        C572   1.418       .  A
C572        N573   1.432       .  S
N573        H577   1.045       .  S
N573        H578   1.045       .  S
N576        H579   1.045       .  S
N576        H580   1.046       .  S
C581        C582   1.401       .  A
C581        C586   1.403       .  A
C581        H588   1.084       .  S
C582        C583   1.416       .  A
C583        C584   1.403       .  A
C583        N590   1.432       .  S
C584        C585   1.400       .  A
C584        H589   1.084       .  S
C585        C586   1.411       .  A
C586        N587   1.432       .  S
N587        H591   1.045       .  S
N587        H592   1.045       .  S
N590        H593   1.045       .  S
N590        H594   1.044       .  S
C595        C596   1.409       .  A
C595        C600   1.405       .  A
C595        H602   1.083       .  S
C596        C597   1.409       .  A
C597        C598   1.388       .  A
C597        N604   1.434       .  S
C598        C599   1.404       .  A
C598        H603   1.085       .  S
C599        C600   1.409       .  A
C600        N601   1.431       .  S
N601        H605   1.045       .  S
N601        H606   1.045       .  S
N604        H607   1.045       .  S
N604        H608   1.044       .  S
C609        C610   1.395       .  A
C609        C614   1.387       .  A
C609        H616   1.085       .  S
C610        C611   1.415       .  A
C611        C612   1.407       .  A
C611        N618   1.431       .  S
C612        C613   1.404       .  A
C612        H617   1.083       .  S
C613        C614   1.420       .  A
C614        N615   1.434       .  S
N615        H619   1.043       .  S
N615        H620   1.043       .  S
N618        H621   1.043       .  S
N618        H622   1.046       .  S
C623        C624   1.401       .  A
C623        C628   1.399       .  A
C623        H630   1.081       .  S
C624        C625   1.414       .  A
C625        C626   1.411       .  A
C625        N632   1.438       .  S
C626        C627   1.405       .  A
C626        H631   1.084       .  S
C627        C628   1.412       .  A
C628        N629   1.439       .  S
N629        H633   1.046       .  S
N629        H634   1.046       .  S
N632        H635   1.045       .  S
N632        H636   1.045       .  S
C637        C638   1.400       .  A
C637        C642   1.401       .  A
C637        H644   1.083       .  S
C638        C639   1.416       .  A
C639        C640   1.409       .  A
C639        N646   1.432       .  S
C640        C641   1.407       .  A
C640        H645   1.084       .  S
C641        C642   1.415       .  A
C642        N643   1.433       .  S
N643        H647   1.046       .  S
N643        H648   1.045       .  S
N646        H649   1.046       .  S
N646        H650   1.045       .  S
C651        C652   1.410       .  A
C651        C656   1.391       .  A
C651        H658   1.084       .  S
C652        C653   1.414       .  A
C653        C654   1.414       .  A
C653        N660   1.436       .  S
C654        C655   1.406       .  A
C654        H659   1.083       .  S
C655        C656   1.412       .  A
C656        N657   1.442       .  S
N657        H661   1.046       .  S
N657        H662   1.042       .  S
N660        H663   1.046       .  S
N660        H664   1.045       .  S
C665        C666   1.398       .  A
C665        C670   1.394       .  A
C665        H672   1.085       .  S
C666        C667   1.424       .  A
C667        C668   1.410       .  A
C667        N674   1.438       .  S
C668        C669   1.400       .  A
C668        H673   1.083       .  S
C669        C670   1.411       .  A
C670        N671   1.434       .  S
N671        H675   1.046       .  S
N671        H676   1.046       .  S
N674        H677   1.043       .  S
N674        H678   1.045       .  S
C679        C680   1.408       .  A
C679        C684   1.408       .  A
C679        H686   1.084       .  S
C680        C681   1.413       .  A
C681        C682   1.407       .  A
C681        N688   1.437       .  S
C682        C683   1.403       .  A
C682        H687   1.084       .  S
C683        C684   1.406       .  A
C684        N685   1.437       .  S
N685        H689   1.045       .  S
N685        H690   1.046       .  S
N688        H691   1.047       .  S
N688        H692   1.044       .  S
C693        C694   1.402       .  A
C693        C698   1.404       .  A
C693        H700   1.083       .  S
C694        C695   1.417       .  A
C695        C696   1.399       .  A
C695        N702   1.431       .  S
C696        C697   1.397       .  A
C696        H701   1.084       .  S
C697        C698   1.408       .  A
C698        N699   1.432       .  S
N699        H703   1.046       .  S
N699        H704   1.045       .  S
N702        H705   1.045       .  S
N702        H706   1.042       .  S
C707        C708   1.407       .  A
C707        C712   1.408       .  A
C707        H714   1.084       .  S
C708        C709   1.410       .  A
C709        C710   1.390       .  A
C709        N716   1.434       .  S
C710        C711   1.405       .  A
C710        H715   1.085       .  S
C711        C712   1.413       .  A
C712        N713   1.431       .  S
N713        H717   1.045       .  S
N713        H718   1.046       .  S
N716        H719   1.045       .  S
N716        H720   1.044       .  S
C721        C722   1.410       .  A
C721        C726   1.406       .  A
C721        H728   1.083       .  S
C722        C723   1.411       .  A
C723        C724   1.394       .  A
C723        N730   1.438       .  S
C724        C725   1.404       .  A
C724        H729   1.084       .  S
C725        C726   1.412       .  A
C726        N727   1.431       .  S
N727        H731   1.045       .  S
N727        H732   1.045       .  S
N730        H733   1.044       .  S
N730        H734   1.046       .  S
C735        C736   1.408       .  A
C735        C740   1.396       .  A
C735        H742   1.084       .  S
C736        C737   1.414       .  A
C737        C738   1.410       .  A
C737        N744   1.437       .  S
C738        C739   1.404       .  A
C738        H743   1.084       .  S
C739        C740   1.409       .  A
C740        N741   1.432       .  S
N741        H745   1.043       .  S
N741        H746   1.046       .  S
N744        H747   1.046       .  S
N744        H748   1.046       .  S
C749        C750   1.410       .  A
C749        C754   1.412       .  A
C749        H756   1.083       .  S
C750        C751   1.421       .  A
C751        C752   1.398       .  A
C751        N758   1.434       .  S
C752        C753   1.397       .  A
C752        H757   1.085       .  S
C753        C754   1.414       .  A
C754        N755   1.431       .  S
N755        H759   1.044       .  S
N755        H760   1.046       .  S
N758        H761   1.046       .  S
N758        H762   1.046       .  S
C763        C764   1.400       .  A
C763        C768   1.390       .  A
C763        H770   1.080       .  S
C764        C765   1.414       .  A
C765        C766   1.404       .  A
C765        N772   1.433       .  S
C766        C767   1.400       .  A
C766        H771   1.084       .  S
C767        C768   1.410       .  A
C768        N769   1.430       .  S
N769        H773   1.043       .  S
N769        H774   1.045       .  S
N772        H775   1.045       .  S
N772        H776   1.046       .  S
C777        C778   1.406       .  A
C777        C782   1.391       .  A
C777        H784   1.085       .  S
C778        C779   1.415       .  A
C779        C780   1.405       .  A
C779        N786   1.437       .  S
C780        C781   1.405       .  A
C780        H785   1.084       .  S
C781        C782   1.403       .  A
C782        N783   1.440       .  S
N783        H787   1.046       .  S
N783        H788   1.045       .  S
N786        H789   1.043       .  S
N786        H790   1.044       .  S
C791        C792   1.404       .  A
C791        C796   1.402       .  A
C791        H798   1.083       .  S
C792        C793   1.415       .  A
C793        C794   1.410       .  A
C793        N800   1.437       .  S
C794        C795   1.401       .  A
C794        H799   1.084       .  S
C795        C796   1.408       .  A
C796        N797   1.432       .  S
N797        H801   1.045       .  S
N797        H802   1.046       .  S
N800        H803   1.046       .  S
N800        H804   1.046       .  S
C805        C806   1.408       .  A
C805        C810   1.415       .  A
C805        H812   1.083       .  S
C806        C807   1.415       .  A
C807        C808   1.401       .  A
C807        N814   1.439       .  S
C808        C809   1.409       .  A
C808        H813   1.084       .  S
C809        C810   1.413       .  A
C810        N811   1.437       .  S
N811        H815   1.046       .  S
N811        H816   1.045       .  S
N814        H817   1.042       .  S
N814        H818   1.046       .  S
C819        C820   1.404       .  A
C819        C824   1.407       .  A
C819        H826   1.084       .  S
C820        C821   1.412       .  A
C821        C822   1.389       .  A
C821        N828   1.434       .  S
C822        C823   1.394       .  A
C822        H827   1.084       .  S
C823        C824   1.415       .  A
C824        N825   1.431       .  S
N825        H829   1.046       .  S
N825        H830   1.043       .  S
N828        H831   1.045       .  S
N828        H832   1.046       .  S
C833        C834   1.403       .  A
C833        C838   1.411       .  A
C833        H840   1.083       .  S
C834        C835   1.414       .  A
C835        C836   1.394       .  A
C835        N842   1.434       .  S
C836        C837   1.396       .  A
C836        H841   1.084       .  S
C837        C838   1.412       .  A
C838        N839   1.431       .  S
N839        H843   1.046       .  S
N839        H844   1.045       .  S
N842        H845   1.045       .  S
N842        H846   1.046       .  S
C847        C848   1.406       .  A
C847        C852   1.416       .  A
C847        H854   1.083       .  S
C848        C849   1.405       .  A
C849        C850   1.394       .  A
C849        N856   1.433       .  S
C850        C851   1.412       .  A
C850        H855   1.084       .  S
C851        C852   1.415       .  A
C852        N853   1.437       .  S
N853        H857   1.045       .  S
N853        H858   1.046       .  S
N856        H859   1.045       .  S
N856        H860   1.045       .  S
C861        C862   1.405       .  A
C861        C866   1.404       .  A
C861        H868   1.083       .  S
C862        C863   1.414       .  A
C863        C864   1.412       .  A
C863        N870   1.432       .  S
C864        C865   1.405       .  A
C864        H869   1.084       .  S
C865        C866   1.419       .  A
C866        N867   1.433       .  S
N867        H871   1.045       .  S
N867        H872   1.044       .  S
N870        H873   1.046       .  S
N870        H874   1.045       .  S
C875        C876   1.406       .  A
C875        C880   1.412       .  A
C875        H882   1.083       .  S
C876        C877   1.418       .  A
C877        C878   1.390       .  A
C877        N884   1.434       .  S
C878        C879   1.394       .  A
C878        H883   1.085       .  S
C879        C880   1.421       .  A
C880        N881   1.437       .  S
N881        H885   1.045       .  S
N881        H886   1.044       .  S
N884        H887   1.046       .  S
N884        H888   1.046       .  S
C889        C890   1.394       .  A
C889        C894   1.390       .  A
C889        H896   1.085       .  S
C890        C891   1.421       .  A
C891        C892   1.412       .  A
C891        N898   1.438       .  S
C892        C893   1.403       .  A
C892        H897   1.083       .  S
C893        C894   1.412       .  A
C894        N895   1.434       .  S
N895        H899   1.045       .  S
N895        H900   1.046       .  S
N898        H901   1.044       .  S
N898        H902   1.045       .  S
C903        C904   1.409       .  A
C903        C908   1.417       .  A
C903        H910   1.084       .  S
C904        C905   1.406       .  A
C905        C906   1.404       .  A
C905        N912   1.432       .  S
C906        C907   1.410       .  A
C906        H911   1.083       .  S
C907        C908   1.413       .  A
C908        N909   1.431       .  S
N909        H913   1.046       .  S
N909        H914   1.046       .  S
N912        H915   1.045       .  S
N912        H916   1.046       .  S
