geometry optimzed in LAMMPS
_audit_creation_date              2020-11-30 
_audit_creation_method            'lammps2cif' 
_symmetry_space_group_name_H-M    'P1' 
_symmetry_Int_Tables_number       1 
_symmetry_cell_setting            triclinic 
loop_ 
_symmetry_equiv_pos_as_xyz 
  x,y,z 
_cell_length_a                    38.99748326 
_cell_length_b                    39.01076381494182 
_cell_length_c                    30.409420968819788 
_cell_angle_alpha                 81.54047002035361 
_cell_angle_beta                  79.65145183170897 
_cell_angle_gamma                 91.01323564642846 
loop_ 
_atom_site_label 
_atom_site_type_symbol 
_atom_site_fract_x 
_atom_site_fract_y 
_atom_site_fract_z 
_atom_site_charge 
N1          N  0.34116315  0.36871202  0.99369211    -0.03100
C2          C  0.33257692  0.35265758  0.46109929    -0.00500
C3          C  0.36191194  0.35708830  0.42770171    -0.23400
C4          C  0.38547383  0.37630600  0.44301632    -0.23600
C5          C  0.37444476  0.38267931  0.98281403    -0.00600
H6          H  0.36501178  0.34881554  0.39481806     0.13200
H7          H  0.41022698  0.38734446  0.42355622     0.13200
N8          N  0.04381296  0.40070620  0.02357840    -0.03100
C9          C  0.03095764  0.43286988  0.02541882    -0.00500
C10         C  0.04264003  0.44753825  0.05925081    -0.23400
C11         C  0.06330664  0.42432938  0.07846883    -0.23600
C12         C  0.06335592  0.39594777  0.05643123    -0.00600
H13         H  0.53018064  0.46798210  0.08290816     0.13200
H14         H  0.07382901  0.42620809  0.10868393     0.13200
N15         N  0.29566665  0.06146255  0.03207215    -0.03100
C16         C  0.31321735  0.03164872  0.03404655    -0.00500
C17         C  0.30117931  0.01034735  0.07480323    -0.23400
C18         C  0.27645016  0.02791339  0.09937746    -0.23600
C19         C  0.27414565  0.05930085  0.07277699    -0.00600
H20         H  0.31235006  0.98651589  0.08750899     0.13200
H21         H  0.26392663  0.02003848  0.13426927     0.13200
N22         N  0.43992097  0.43857293  0.49890031    -0.36200
N23         N  0.47605716  0.50113992  0.01179357    -0.56800
N24         N  0.41168916  0.03958071  0.01308155    -0.36200
N25         N  0.37560112  0.47622213  0.50174887    -0.56800
C26         C  0.46843937  0.42714449  0.51503376     0.27400
C27         C  0.41446365  0.41346181  0.51343905     0.27400
C28         C  0.42884864  0.05491399  0.04063275     0.27400
C29         C  0.37716917  0.04443525  0.02600998     0.27400
C30         C  0.50490237  0.48330814  0.00039637     0.36000
C31         C  0.48602810  0.03089347  0.01711673     0.36000
C32         C  0.36683367  0.44629881  0.48838267     0.36000
C33         C  0.35835367  0.49933326  0.98658696     0.36000
C34         C  0.46067677  0.39454385  0.54050056    -0.21500
C35         C  0.42682905  0.38536708  0.53820744    -0.21500
C36         C  0.40525179  0.07166430  0.06907344    -0.21500
C37         C  0.37273813  0.06493192  0.06000246    -0.21500
C38         C  0.02814851  0.50612006  0.98847996    -0.22600
C39         C  0.01751323  0.03329163  0.00870152    -0.22600
C40         C  0.33953188  0.45112887  0.46492862    -0.22600
C41         C  0.33041933  0.48493002  0.46555601    -0.22600
C42         C  0.50026883  0.44671982  0.50867649    -0.17900
C43         C  0.38171466  0.41441401  0.50057906    -0.17900
C44         C  0.34960626  0.02818238  0.01063476    -0.17900
C45         C  0.46482026  0.05241817  0.04278321    -0.17900
H46         H  0.47686642  0.37970851  0.56068535     0.15000
H47         H  0.41251543  0.36139164  0.55411849     0.15000
H48         H  0.41068386  0.08606883  0.09505882     0.15000
H49         H  0.34849628  0.07234603  0.07861816     0.15000
H50         H  0.05514396  0.49975055  0.97925274     0.13300
H51         H  0.03449611  0.05409838  0.01302426     0.13300
H52         H  0.32668450  0.43203111  0.45046666     0.13300
H53         H  0.30838997  0.49678753  0.45319286     0.13300
H54         H  0.43865700  0.46115832  0.47625455     0.26500
H55         H  0.42270856  0.02590760  0.98748037     0.26500
N56         N  0.49897147  0.08422782  0.09090574    -0.03100
C57         C  0.99811128  0.08057848  0.13495465    -0.00500
C58         C  0.47759291  0.05257404  0.15862503    -0.23400
C59         C  0.46189906  0.04004193  0.12689429    -0.23600
C60         C  0.47544536  0.05971008  0.08551368    -0.00600
H61         H  0.47312855  0.04283254  0.19447745     0.13200
H62         H  0.44285859  0.01853863  0.13314843     0.13200
C63         C  0.24025646  0.15138353  0.38537344     0.42800
N64         N  0.20133189  0.16898602  0.34551460     0.01700
C65         C  0.21923043  0.31827261  0.18340745    -0.06100
H66         H  0.19468373  0.33430311  0.35862390     0.07200
C67         C  0.08037125  0.28403335  0.37982657    -0.06500
Co68       Co  0.22790570  0.23073530  0.27603825     0.74200
N69         N  0.20654341  0.29430976  0.31695327    -0.25700
Co70       Co  0.16854829  0.29567689  0.27692238     0.74100
C71         C  0.09387197  0.31781406  0.38649664     0.43000
N72         N  0.10001906  0.19680965  0.36876645     0.01400
N73         N  0.12887744  0.29855135  0.33300399     0.01500
N74         N  0.25604806  0.27449720  0.18447770    -0.46500
H75         H  0.27814363  0.19718781  0.34737642     0.07200
N76         N  0.22927143  0.26952701  0.31658789     0.01700
N77         N  0.13086802  0.29159688  0.23776275     0.01500
C78         C  0.10661084  0.29346157  0.17980061     0.43100
N79         N  0.12337347  0.17265623  0.36840669    -0.25100
C80         C  0.23840357  0.18661687  0.19606042    -0.06000
N81         N  0.20806151  0.14414220  0.37711951    -0.46200
N82         N  0.13300489  0.30709932  0.19568842    -0.46500
C83         C  0.21952383  0.15677346  0.18564963     0.42900
N84         N  0.23026262  0.26917303  0.22000134     0.01700
N85         N  0.11957325  0.16775106  0.27462466    -0.25100
N86         N  0.22721232  0.19237317  0.33182283    -0.25600
N87         N  0.09648891  0.19192168  0.27421270     0.01400
H88         H  0.12553902  0.12075884  0.24543231     0.07300
H89         H  0.06429873  0.25223529  0.21674414     0.07300
N90         N  0.20826132  0.29436326  0.22041108    -0.25700
N91         N  0.10350787  0.27442170  0.34598139    -0.25300
N92         N  0.19598549  0.16800365  0.25107781     0.01700
C93         C  0.23821956  0.29668557  0.37008758     0.43100
C94         C  0.11706599  0.15173687  0.40823740    -0.06500
N95         N  0.10438894  0.26851826  0.25078375    -0.25300
H96         H  0.05590068  0.27023963  0.39544229     0.07300
N97         N  0.24879755  0.27017361  0.34776782    -0.46500
H98         H  0.12964103  0.12762899  0.41527395     0.07300
C99         C  0.08013531  0.15593424  0.23387510     0.43000
C100        C  0.25292410  0.18371844  0.35483258    -0.06000
Co101      Co  0.16004801  0.16871423  0.31039765     0.73800
N102        N  0.07747135  0.19338277  0.40757192    -0.46200
C103        C  0.25116576  0.30493782  0.15924857     0.43200
N104        N  0.19401127  0.14664246  0.22165175    -0.46200
Co105      Co  0.10009500  0.23309111  0.31034294     0.73900
C106        C  0.08692234  0.26865581  0.21666344    -0.06600
C107        C  0.21055571  0.31315515  0.34925422    -0.06100
N108        N  0.22171666  0.19176552  0.23708807    -0.25600
N109        N  0.12403634  0.32493663  0.35619829    -0.46400
H110        H  0.20751779  0.34286417  0.17591301     0.07200
C111        C  0.11139791  0.14387230  0.25035274    -0.06500
Cl112      Cl  0.16415745  0.23208066  0.29368463    -0.49500
C113        C  0.08699566  0.16584518  0.43471318     0.43000
H114        H  0.26030191  0.20236250  0.17573570     0.07200
N115        N  0.07220942  0.18578530  0.25043653    -0.46200
C116        C  0.01645025  0.13627627  0.15747713    -0.25900
C117        C  0.02121775  0.10084921  0.15644588    -0.14000
C118        C  0.04597296  0.08411922  0.17941838     0.36600
C119        C  0.06479274  0.10259826  0.20413837    -0.25400
C120        C  0.05961539  0.13791784  0.20645369    -0.14600
C121        C  0.03542111  0.15507893  0.18224061     0.37700
N122        N  0.03015537  0.19138806  0.18277257    -0.88900
H123        H  0.99734689  0.14906623  0.13971630     0.18800
H124        H  0.08322567  0.08883329  0.22207585     0.18800
N125        N  0.05237684  0.04830639  0.17721154    -0.87900
H126        H  0.01108433  0.19979091  0.16396802     0.36200
H127        H  0.05340339  0.20491392  0.16634859     0.41300
H128        H  0.57378237  0.03847966  0.17681743     0.40900
H129        H  0.04767924  0.03479403  0.21019758     0.35800
C130        C  0.02806984  0.14800917  0.48058664    -0.25900
C131        C  0.06453931  0.14771729  0.47663749    -0.14000
C132        C  0.07868697  0.12967438  0.51269506     0.36600
C133        C  0.05432979  0.10842513  0.05309501    -0.25400
C134        C  0.01814720  0.10753931  0.05440322    -0.14600
C135        C  0.00467818  0.12807981  0.01988323     0.37700
N136        N  0.47079987  0.13241956  0.02710590    -0.88900
H137        H  0.01691021  0.16259142  0.45385148     0.18800
H138        H  0.06502939  0.09303227  0.07958141     0.18800
N139        N  0.11520791  0.13146759  0.51399997    -0.87900
H140        H  0.46496401  0.14992931  0.00026715     0.36200
H141        H  0.46176268  0.14273330  0.05669272     0.41300
H142        H  0.12381459  0.15750236  0.50876545     0.40900
H143        H  0.12886483  0.11902061  0.48861273     0.35800
C144        C  0.22265320  0.08345809  0.11604823    -0.25900
C145        C  0.25657337  0.08884151  0.09089408    -0.14000
C146        C  0.27552671  0.11996194  0.09065762     0.36600
C147        C  0.26188449  0.14329309  0.11943306    -0.25400
C148        C  0.22953596  0.13608443  0.14850902    -0.14600
C149        C  0.20855877  0.10712856  0.14425068     0.37700
N150        N  0.17361605  0.10110265  0.16971123    -0.88900
H151        H  0.20778554  0.05988248  0.11526640     0.18800
H152        H  0.27781110  0.16595267  0.12089913     0.18800
N153        N  0.30975099  0.12685246  0.06392249    -0.87900
H154        H  0.16212509  0.07839017  0.16320984     0.36200
H155        H  0.15887005  0.12149291  0.15817774     0.41300
H156        H  0.32716101  0.13009509  0.08558663     0.40900
H157        H  0.30966229  0.15032281  0.04234600     0.35800
C158        C  0.30196615  0.11481968  0.46551619    -0.25900
C159        C  0.28579040  0.07982181  0.99167075    -0.14000
C160        C  0.25295661  0.07220320  0.98114289     0.36600
C161        C  0.23983229  0.09673475  0.43948128    -0.25400
C162        C  0.25760292  0.12819667  0.41819934    -0.14600
C163        C  0.29006365  0.13628921  0.43053431     0.37700
N164        N  0.31143799  0.16629924  0.40931046    -0.88900
H165        H  0.32586794  0.12215863  0.47587109     0.18800
H166        H  0.21561099  0.08922114  0.43003279     0.18800
N167        N  0.23233449  0.04219879  0.00567875    -0.87900
H168        H  0.29692296  0.18798517  0.41409405     0.36200
H169        H  0.31873795  0.16480807  0.37489140     0.41300
H170        H  0.24588333  0.02026626  0.99824553     0.40900
H171        H  0.20856692  0.04033860  0.99464013     0.37200
C172        C  0.05865048  0.31958946  0.14659406    -0.25900
C173        C  0.09371328  0.31133040  0.14079367    -0.14000
C174        C  0.11715725  0.32597789  0.10136991     0.36600
C175        C  0.10580529  0.35130869  0.07019979    -0.25400
C176        C  0.07164399  0.36223742  0.07881295    -0.14600
C177        C  0.04770101  0.34575433  0.11661462     0.37700
N178        N  0.01303886  0.35769696  0.12664406    -0.88900
H179        H  0.04053280  0.30859060  0.17696168     0.18800
H180        H  0.12430440  0.36437320  0.04142546     0.18800
N181        N  0.15280568  0.31641134  0.09422111    -0.87900
H182        H  0.00971839  0.36602848  0.15823575     0.36200
H183        H  0.99544756  0.33668195  0.12905974     0.41300
H184        H  0.16869720  0.33874610  0.09170844     0.40900
H185        H  0.15821641  0.30711283  0.06327540     0.35800
C186        C  0.05361617  0.32529238  0.45800344    -0.25900
C187        C  0.07808392  0.34033295  0.42004177    -0.14000
C188        C  0.08694889  0.37626992  0.41536214     0.36600
C189        C  0.07246257  0.39553734  0.44960888    -0.25400
C190        C  0.04991701  0.37977051  0.48899777    -0.14600
C191        C  0.03991134  0.34437360  0.49240707     0.37700
N192        N  0.01626703  0.32726103  0.53116461    -0.88900
H193        H  0.04600216  0.29800781  0.46221612     0.18800
H194        H  0.07442331  0.42398229  0.93888908     0.18800
N195        N  0.11072672  0.39319810  0.37619669    -0.87900
H196        H  0.02844838  0.30582875  0.54541550     0.36200
H197        H  0.99446569  0.31793822  0.52020906     0.41300
H198        H  0.13560538  0.38453819  0.37878159     0.40900
H199        H  0.10131773  0.41968139  0.86627033     0.35800
C200        C  0.27476194  0.35791760  0.10251327    -0.25900
C201        C  0.27677406  0.32232481  0.11865948    -0.14000
C202        C  0.30313819  0.30363407  0.09521447     0.36600
C203        C  0.32526353  0.32033686  0.05581253    -0.25400
C204        C  0.32229097  0.35538179  0.03875696    -0.14600
C205        C  0.29722225  0.37457031  0.06291916     0.37700
N206        N  0.29427657  0.41067938  0.04699180    -0.88900
H207        H  0.25524907  0.37279732  0.12037641     0.18800
H208        H  0.34446466  0.30560808  0.03706603     0.18800
N209        N  0.30677838  0.26740874  0.11031418    -0.87900
H210        H  0.27582271  0.42155725  0.06965989     0.36200
H211        H  0.28467259  0.41240421  0.01687547     0.41300
H212        H  0.31696100  0.26555165  0.14006813     0.40900
H213        H  0.32522813  0.25696593  0.08711716     0.35800
C214        C  0.29995680  0.30119433  0.45153900    -0.25900
C215        C  0.30017706  0.33654118  0.45436406    -0.14000
C216        C  0.27522868  0.35735478  0.43680735     0.36600
C217        C  0.25283183  0.34319830  0.41233760    -0.25400
C218        C  0.25563062  0.30870316  0.40460474    -0.14600
C219        C  0.27786631  0.28709283  0.42678746     0.37700
N220        N  0.27958060  0.25121113  0.42225885    -0.88900
H221        H  0.31921510  0.28514820  0.46502689     0.18800
H222        H  0.23537034  0.36008224  0.39641746     0.18800
N223        N  0.27968081  0.39425080  0.93576044    -0.87900
H224        H  0.27392476  0.23672256  0.45468711     0.36200
H225        H  0.30527567  0.24697487  0.40785542     0.41300
H226        H  0.25558511  0.40053495  0.95323690     0.40900
H227        H  0.28261707  0.40676195  0.90235351     0.35800
N228        N  0.33669521  0.36809397  0.49697673    -0.03100
C229        C  0.33710065  0.35349489  0.95763190    -0.00500
C230        C  0.36686209  0.35698647  0.92498046    -0.23400
C231        C  0.39066311  0.37543799  0.94103735    -0.23600
C232        C  0.36953041  0.38307789  0.48510417    -0.00600
H233        H  0.37025176  0.34840360  0.89226656     0.13200
H234        H  0.41589635  0.38569207  0.92220525     0.13200
N235        N  0.04377043  0.39777805  0.52800789    -0.03100
C236        C  0.03136436  0.43007753  0.53081772    -0.00500
C237        C  0.04057231  0.44247011  0.56780205    -0.23400
C238        C  0.05896078  0.41759243  0.58831587    -0.23600
C239        C  0.06034109  0.39067279  0.56359488    -0.00600
H240        H  0.53052184  0.46915972  0.57736575     0.13200
H241        H  0.06776761  0.41776469  0.62007998     0.13200
N242        N  0.29087710  0.06752169  0.53046412    -0.03100
C243        C  0.30704973  0.03695563  0.53481884    -0.00500
C244        C  0.29247126  0.01634256  0.57515199    -0.23400
C245        C  0.26754288  0.03510658  0.59725376    -0.23600
C246        C  0.26760080  0.06644057  0.56954509    -0.00600
H247        H  0.30211899  0.99216843  0.58951156     0.13200
H248        H  0.25353083  0.02812846  0.63163401     0.13200
N249        N  0.44494444  0.43821373  0.99806117    -0.36200
N250        N  0.47130920  0.50089458  0.51290295    -0.56800
N251        N  0.40543909  0.03983829  0.52171736    -0.36200
N252        N  0.38098767  0.47580299  0.99953266    -0.56800
C253        C  0.47310627  0.42686756  0.01511784     0.27400
C254        C  0.41951649  0.41295029  0.01163327     0.27400
C255        C  0.42206192  0.05330700  0.55131367     0.27400
C256        C  0.37097303  0.04571022  0.53306979     0.27400
C257        C  0.50005761  0.48343519  0.49969175     0.36000
C258        C  0.47983491  0.02955860  0.52794494     0.36000
C259        C  0.37222344  0.44598393  0.98591437     0.36000
C260        C  0.35322096  0.49977700  0.48811755     0.36000
C261        C  0.46522022  0.39400496  0.03996891    -0.21500
C262        C  0.43157575  0.38481440  0.03669919    -0.21500
C263        C  0.39812192  0.06961992  0.57998182    -0.21500
C264        C  0.36600214  0.06473714  0.56857735    -0.21500
C265        C  0.03088639  0.50436908  0.49721027    -0.22600
C266        C  0.02127773  0.03220823  0.50967387    -0.22600
C267        C  0.34476953  0.45090658  0.96275584    -0.22600
C268        C  0.33546012  0.48457608  0.96406161    -0.22600
C269        C  0.50474666  0.44661133  0.01004393    -0.17900
C270        C  0.38696261  0.41402474  0.99810347    -0.17900
C271        C  0.34382994  0.03175320  0.51446797    -0.17900
C272        C  0.45806902  0.05067529  0.55379078    -0.17900
H273        H  0.48125529  0.37879910  0.06004301     0.15000
H274        H  0.41720784  0.36075590  0.05209306     0.15000
H275        H  0.40302914  0.08295200  0.60718068     0.15000
H276        H  0.34157358  0.07256990  0.58629734     0.15000
H277        H  0.05791639  0.49753363  0.49068109     0.13300
H278        H  0.03803337  0.05324364  0.51391714     0.13300
H279        H  0.33173538  0.43188053  0.94838915     0.13300
H280        H  0.31303272  0.49627618  0.95257442     0.13300
H281        H  0.44393943  0.46088902  0.97548499     0.26500
H282        H  0.41681229  0.02734453  0.49511269     0.26500
N283        N  0.49361442  0.08536723  0.59762985    -0.03100
C284        C  0.00148904  0.08109996  0.63297197    -0.00500
C285        C  0.47205318  0.05711032  0.66763931    -0.23400
C286        C  0.45592450  0.04281950  0.63767914    -0.23600
C287        C  0.46939352  0.06044482  0.59495950    -0.00600
H288        H  0.46793262  0.04915503  0.70389123     0.13200
H289        H  0.43661570  0.02147940  0.64600851     0.13200
C290        C  0.24102521  0.14891152  0.89279482     0.42800
N291        N  0.20238027  0.16636195  0.85214724     0.01700
C292        C  0.21939220  0.31577998  0.68981671    -0.06100
H293        H  0.19326489  0.33195540  0.86521971     0.07200
C294        C  0.07874650  0.28187310  0.88194180    -0.06500
Co295      Co  0.22884183  0.22873171  0.78331369     0.74200
N296        N  0.20584293  0.29198494  0.82360380    -0.25700
Co297      Co  0.16859811  0.29291478  0.78231280     0.74100
C298        C  0.09131295  0.31639225  0.88722979     0.43000
N299        N  0.10084521  0.19389927  0.87288005     0.01400
N300        N  0.12825192  0.29580067  0.83713700     0.01500
N301        N  0.25756995  0.27319046  0.69160906    -0.46500
H302        H  0.27801844  0.19608241  0.85715760     0.07200
N303        N  0.22874592  0.26738184  0.82375106     0.01700
N304        N  0.13151286  0.28844324  0.74221223     0.01500
C305        C  0.10702289  0.29045595  0.68443619     0.43100
N306        N  0.12420355  0.16976052  0.87329391    -0.25100
C307        C  0.23988392  0.18688061  0.70216714    -0.06000
N308        N  0.20919940  0.14134096  0.88354085    -0.46200
N309        N  0.13333071  0.30431834  0.70035672    -0.46500
C310        C  0.22034804  0.15859105  0.68964370     0.42900
N311        N  0.23157277  0.26729880  0.72694048     0.01700
N312        N  0.12145233  0.16438359  0.77910349    -0.25100
N313        N  0.22787986  0.19025905  0.83944398    -0.25600
N314        N  0.09852643  0.18868175  0.77793164     0.01400
H315        H  0.12785326  0.11756044  0.74935188     0.07300
H316        H  0.06521846  0.24863848  0.72109479     0.07300
N317        N  0.20887528  0.29185082  0.72680866    -0.25700
N318        N  0.10306684  0.27147463  0.84994346    -0.25300
N319        N  0.19816104  0.16598465  0.75708826     0.01700
C320        C  0.23665080  0.29430039  0.87778324     0.43100
C321        C  0.11772329  0.14939716  0.91354846    -0.06500
N322        N  0.10531065  0.26505822  0.75494956    -0.25300
H323        H  0.05394030  0.26836545  0.89657121     0.07300
N324        N  0.24772520  0.26805205  0.85539282    -0.46500
H325        H  0.13043519  0.12550224  0.92143228     0.07300
C326        C  0.08331586  0.15343116  0.73575248     0.43000
C327        C  0.25327087  0.18184336  0.86321751    -0.06000
Co328      Co  0.16153820  0.16583911  0.81594034     0.73800
N329        N  0.07817989  0.19104113  0.91144306    -0.46200
C330        C  0.25189882  0.30332511  0.66612908     0.43200
N331        N  0.19543940  0.14665080  0.72563130    -0.46200
Co332      Co  0.10100864  0.22982893  0.81437262     0.73900
C333        C  0.08774773  0.26519103  0.72097249    -0.06600
C334        C  0.20923077  0.31076064  0.85624925    -0.06100
N335        N  0.22382451  0.18994392  0.74419346    -0.25600
N336        N  0.12219465  0.32303653  0.85844444    -0.46400
H337        H  0.20685064  0.33983879  0.68197666     0.07200
C338        C  0.11377700  0.14075572  0.75401686    -0.06500
Cl339      Cl  0.16500800  0.22933638  0.79922707    -0.49500
C340        C  0.08748113  0.16387462  0.93927106     0.43000
H341        H  0.26083780  0.20391598  0.68192190     0.07200
N342        N  0.07516505  0.18308945  0.75260984    -0.46200
C343        C  0.02101904  0.13629590  0.65608232    -0.25900
C344        C  0.02512654  0.10083582  0.65454832    -0.14000
C345        C  0.04923807  0.08333600  0.67804444     0.36600
C346        C  0.06816894  0.10109620  0.70347690    -0.25400
C347        C  0.06349994  0.13637349  0.70647972    -0.14600
C348        C  0.03996863  0.15432654  0.68175917     0.37700
N349        N  0.03525288  0.19066028  0.68281561    -0.88900
H350        H  0.00230925  0.14969190  0.63818352     0.18800
H351        H  0.08607337  0.08674886  0.72174886     0.18800
N352        N  0.05460219  0.04731735  0.67607191    -0.87900
H353        H  0.01651100  0.19966666  0.66377013     0.36200
H354        H  0.05877469  0.20389923  0.66692170     0.41300
H355        H  0.57732476  0.04943865  0.66296955     0.40900
H356        H  0.04913670  0.03385529  0.70908280     0.35800
C357        C  0.02784805  0.14675847  0.98292592    -0.25900
C358        C  0.06418150  0.14596226  0.98043757    -0.14000
C359        C  0.07731477  0.12774165  0.01717741     0.36600
C360        C  0.05654122  0.11020276  0.54943188    -0.25400
C361        C  0.02023677  0.10876733  0.55211512    -0.14600
C362        C  0.00577386  0.12908635  0.51828824     0.37700
N363        N  0.46541818  0.12664859  0.52675006    -0.88900
H364        H  0.01747335  0.16152389  0.95560845     0.18800
H365        H  0.06798243  0.09505687  0.57542164     0.18800
N366        N  0.11357800  0.12922070  0.02001083    -0.87900
H367        H  0.45965913  0.14134127  0.49755766     0.36200
H368        H  0.45521880  0.13934444  0.55385268     0.41300
H369        H  0.12236433  0.15520699  0.01505666     0.40900
H370        H  0.12770785  0.11666981  0.99510159     0.35800
C371        C  0.21724858  0.09359277  0.61015903    -0.25900
C372        C  0.25176704  0.09701591  0.58671176    -0.14000
C373        C  0.27292817  0.12597287  0.58955487     0.36600
C374        C  0.26096043  0.14812645  0.62066667    -0.25400
C375        C  0.22820924  0.14171907  0.64885833    -0.14600
C376        C  0.20489147  0.11625508  0.64058306     0.37700
N377        N  0.16936434  0.11252052  0.66441743    -0.88900
H378        H  0.20068977  0.07184238  0.60690975     0.18800
H379        H  0.27858421  0.16855916  0.62513041     0.18800
N380        N  0.30767601  0.13133452  0.56400841    -0.87900
H381        H  0.15593716  0.09229154  0.65470720     0.36200
H382        H  0.15709764  0.13526032  0.65457186     0.41300
H383        H  0.32489403  0.13165732  0.58664158     0.40900
H384        H  0.30955298  0.15585741  0.54428072     0.35800
C385        C  0.30600033  0.10838127  0.96642035    -0.25900
C386        C  0.28271993  0.08497186  0.48852962    -0.14000
C387        C  0.25202262  0.07512787  0.47410273     0.36600
C388        C  0.23990758  0.09470502  0.94811270    -0.25400
C389        C  0.25879141  0.12504500  0.92466543    -0.14600
C390        C  0.29300830  0.13106016  0.93339610     0.37700
N391        N  0.31515339  0.16017258  0.91053674    -0.88900
H392        H  0.33141329  0.11406389  0.97399941     0.18800
H393        H  0.21418941  0.08880881  0.94167493     0.18800
N394        N  0.23243288  0.04388019  0.49638074    -0.87900
H395        H  0.30291826  0.18273000  0.91792981     0.36200
H396        H  0.31941228  0.15932124  0.87581098     0.41300
H397        H  0.24797336  0.02298543  0.49006854     0.40900
H398        H  0.21017640  0.04049403  0.48246050     0.37200
C399        C  0.05858804  0.31107507  0.64734265    -0.25900
C400        C  0.09446092  0.30722120  0.64445908    -0.14000
C401        C  0.11803001  0.32484338  0.60704036     0.36600
C402        C  0.10562383  0.34922707  0.57576646    -0.25400
C403        C  0.07025256  0.35645796  0.58239036    -0.14600
C404        C  0.04640616  0.33649557  0.61747599     0.37700
N405        N  0.01029299  0.34445763  0.62558105    -0.88900
H406        H  0.04022472  0.29747357  0.67584226     0.18800
H407        H  0.12400411  0.36491518  0.54911773     0.18800
N408        N  0.15468971  0.31953153  0.60236166    -0.87900
H409        H  0.00414935  0.35145139  0.65788337     0.36200
H410        H  0.99542101  0.32191262  0.62548609     0.41300
H411        H  0.16752606  0.34332186  0.60220983     0.40900
H412        H  0.16317732  0.31154439  0.57101354     0.35800
C413        C  0.05242443  0.32509989  0.95905629    -0.25900
C414        C  0.07476661  0.33976708  0.91896603    -0.14000
C415        C  0.08135852  0.37621505  0.91070422     0.36600
C416        C  0.06767479  0.39644100  0.94416336    -0.25400
C417        C  0.04802884  0.38117214  0.98601416    -0.14600
C418        C  0.03943005  0.34522070  0.99259129     0.37700
N419        N  0.01808112  0.32866233  0.03370217    -0.88900
H420        H  0.04630909  0.29741509  0.96563288     0.18800
H421        H  0.08058957  0.42256793  0.44701592     0.18800
N422        N  0.10193832  0.39269527  0.86862443    -0.87900
H423        H  0.03190902  0.30855346  0.04798425     0.36200
H424        H  0.99590996  0.31751597  0.02557196     0.41300
H425        H  0.12789089  0.38667262  0.86904087     0.40900
H426        H  0.11219603  0.41996356  0.37633247     0.35800
C427        C  0.27239416  0.35611657  0.60762692    -0.25900
C428        C  0.27638416  0.32101248  0.62459911    -0.14000
C429        C  0.30329340  0.30314047  0.60083509     0.36600
C430        C  0.32392277  0.32002541  0.56025169    -0.25400
C431        C  0.31892898  0.35451695  0.54250954    -0.14600
C432        C  0.29339920  0.37298795  0.56700963     0.37700
N433        N  0.28861701  0.40862723  0.55043539    -0.88900
H434        H  0.25246252  0.37044953  0.62568295     0.18800
H435        H  0.34354543  0.30586649  0.54126951     0.18800
N436        N  0.30890274  0.26749763  0.61679990    -0.87900
H437        H  0.26963681  0.41896625  0.57304914     0.36200
H438        H  0.27889886  0.40929846  0.52054045     0.41300
H439        H  0.31937831  0.26697233  0.64620062     0.40900
H440        H  0.32775721  0.25751983  0.59362840     0.35800
C441        C  0.30355120  0.30144537  0.95102103    -0.25900
C442        C  0.30466624  0.33715976  0.95137037    -0.14000
C443        C  0.27885915  0.35761793  0.93538410     0.36600
C444        C  0.25402418  0.34245718  0.91535165    -0.25400
C445        C  0.25553339  0.30739384  0.91004557    -0.14600
C446        C  0.27902529  0.28630951  0.93066625     0.37700
N447        N  0.27941265  0.24986946  0.92874337    -0.88900
H448        H  0.32340682  0.28569482  0.96351806     0.18800
H449        H  0.23573173  0.35889373  0.90043366     0.18800
N450        N  0.27461547  0.39351731  0.44028470    -0.87900
H451        H  0.27580526  0.23663587  0.96183826     0.36200
H452        H  0.30412002  0.24460025  0.91192220     0.41300
H453        H  0.24952999  0.39863683  0.45603192     0.40900
H454        H  0.27928544  0.40756823  0.40758292     0.35800
N455        N  0.34115077  0.86569053  0.99292313    -0.03100
C456        C  0.33345611  0.85050800  0.45677506    -0.00500
C457        C  0.35904484  0.86169936  0.41962315    -0.23400
C458        C  0.37969197  0.88552563  0.43250901    -0.23600
C459        C  0.37273455  0.88313501  0.97914008    -0.00600
H460        H  0.36101515  0.85490977  0.38603110     0.13200
H461        H  0.40114624  0.90121318  0.41091759     0.13200
N462        N  0.04104391  0.89688238  0.02410219    -0.03100
C463        C  0.02704162  0.92837961  0.02884627    -0.00500
C464        C  0.03393106  0.93923436  0.06796155    -0.23400
C465        C  0.05299538  0.91462277  0.08758753    -0.23600
C466        C  0.05704996  0.88941453  0.06013094    -0.00600
H467        H  0.53437978  0.96427267  0.07684859     0.13200
H468        H  0.06121876  0.91402759  0.11983966     0.13200
N469        N  0.29672167  0.55999241  0.03023909    -0.03100
C470        C  0.31501547  0.53070635  0.03086554    -0.00500
C471        C  0.30400608  0.50862592  0.07127037    -0.23400
C472        C  0.27936381  0.52529189  0.09717516    -0.23600
C473        C  0.27596375  0.55681230  0.07155302    -0.00600
H474        H  0.31610008  0.48508571  0.08300827     0.13200
H475        H  0.26770692  0.51680903  0.13226205     0.13200
N476        N  0.43551609  0.93888412  0.50025059    -0.36200
N477        N  0.47492844  0.99882887  0.01267951    -0.56800
N478        N  0.41295933  0.54150914  0.01134783    -0.36200
N479        N  0.37153287  0.97792447  0.50448859    -0.56800
C480        C  0.46346630  0.92544251  0.51607645     0.27400
C481        C  0.40955696  0.91407047  0.51151979     0.27400
C482        C  0.42926698  0.55592810  0.04044484     0.27400
C483        C  0.37825698  0.54515065  0.02423271     0.27400
C484        C  0.50358248  0.98117161  0.99958829     0.36000
C485        C  0.48690505  0.53313367  0.01686121     0.36000
C486        C  0.36263259  0.94935544  0.48822352     0.36000
C487        C  0.35534199  0.99847225  0.98988408     0.36000
C488        C  0.45485844  0.89179077  0.53787451    -0.21500
C489        C  0.42104839  0.88421681  0.53371622    -0.21500
C490        C  0.40487671  0.57076964  0.07020831    -0.21500
C491        C  0.37276723  0.56388209  0.06009034    -0.21500
C492        C  0.02843985  0.00237608  0.99560014    -0.22600
C493        C  0.01679030  0.53721235  0.00057049    -0.22600
C494        C  0.33507135  0.95580447  0.46545679    -0.22600
C495        C  0.32615128  0.98928781  0.46929292    -0.22600
C496        C  0.49558566  0.94388968  0.51290302    -0.17900
C497        C  0.37729742  0.91693295  0.49747191    -0.17900
C498        C  0.35154441  0.52882848  0.00741500    -0.17900
C499        C  0.46524706  0.55428043  0.04250590    -0.17900
H500        H  0.47054219  0.87502259  0.55672764     0.15000
H501        H  0.40621107  0.85998689  0.54661213     0.15000
H502        H  0.40950390  0.58389734  0.09771806     0.15000
H503        H  0.34814604  0.56984655  0.07929564     0.15000
H504        H  0.05524499  0.99480490  0.98935439     0.13300
H505        H  0.03336660  0.55953310  0.00070307     0.13300
H506        H  0.32173387  0.93779631  0.44968427     0.13300
H507        H  0.30427502  0.00211945  0.45784679     0.13300
H508        H  0.43492142  0.96266442  0.47977342     0.26500
H509        H  0.42464146  0.52911139  0.98470352     0.26500
N510        N  0.49810251  0.58792559  0.08983195    -0.03100
C511        C  0.99671589  0.58345410  0.13089498    -0.00500
C512        C  0.47960177  0.55470748  0.15741751    -0.23400
C513        C  0.46411859  0.54144324  0.12608806    -0.23600
C514        C  0.47583875  0.56212341  0.08487510    -0.00600
H515        H  0.47672005  0.54434414  0.19297382     0.13200
H516        H  0.44666672  0.51866377  0.13239088     0.13200
C517        C  0.24027172  0.64759862  0.38422194     0.42800
N518        N  0.20135295  0.66500596  0.34440598     0.01700
C519        C  0.22257277  0.81542693  0.18457017    -0.06100
H520        H  0.19579907  0.82684010  0.36251791     0.07200
C521        C  0.08191469  0.78193288  0.37810594    -0.06500
Co522      Co  0.22910481  0.72649651  0.27534329     0.74200
N523        N  0.20864506  0.78920792  0.31776092    -0.25700
Co524      Co  0.17103455  0.79236320  0.27692989     0.74100
C525        C  0.09601306  0.81529644  0.38559774     0.43000
N526        N  0.10033974  0.69395063  0.36671900     0.01400
N527        N  0.13117547  0.79548659  0.33261768     0.01500
N528        N  0.25881864  0.77112551  0.18499218    -0.46500
H529        H  0.27803096  0.69348780  0.34646807     0.07200
N530        N  0.23114479  0.76426037  0.31658387     0.01700
N531        N  0.13351306  0.78985208  0.23701563     0.01500
C532        C  0.10939094  0.79309784  0.17871722     0.43100
N533        N  0.12311370  0.66924102  0.36652008    -0.25100
C534        C  0.23902296  0.68288513  0.19535436    -0.06000
N535        N  0.20796947  0.64028857  0.37621658    -0.46200
N536        N  0.13578553  0.80616903  0.19526843    -0.46500
C537        C  0.21983967  0.65332213  0.18484419     0.42900
N538        N  0.23252970  0.76547409  0.21990094     0.01700
N539        N  0.12012417  0.66542750  0.27234396    -0.25100
N540        N  0.22744228  0.68812353  0.33061504    -0.25600
N541        N  0.09781258  0.69030004  0.27141265     0.01400
H542        H  0.12560434  0.61884158  0.24214830     0.07300
H543        H  0.06726531  0.75117065  0.21428516     0.07300
N544        N  0.21092797  0.79099769  0.22070417    -0.25700
N545        N  0.10528634  0.77187285  0.34481854    -0.25300
N546        N  0.19625586  0.66465691  0.25000906     0.01700
C547        C  0.23885818  0.78834061  0.37311643     0.43100
C548        C  0.11570700  0.64775016  0.40588759    -0.06500
N549        N  0.10691598  0.76686176  0.24921721    -0.25300
H550        H  0.05700087  0.76868952  0.39280856     0.07300
N551        N  0.24983003  0.76304172  0.34890214    -0.46500
H552        H  0.12759781  0.62322486  0.41269986     0.07300
C553        C  0.08183705  0.65576657  0.22898127     0.43000
C554        C  0.25302081  0.67968740  0.35370044    -0.06000
Co555      Co  0.16019046  0.66536180  0.30891382     0.73800
N556        N  0.07726976  0.69050472  0.40507487    -0.46200
C557        C  0.25456478  0.80214515  0.16063186     0.43200
N558        N  0.19411074  0.64342164  0.22056500    -0.46200
Co559      Co  0.10161424  0.73091108  0.30844824     0.73900
C560        C  0.08968068  0.76765916  0.21480532    -0.06600
C561        C  0.21189306  0.80616615  0.35205438    -0.06100
N562        N  0.22225541  0.68812712  0.23620327    -0.25600
N563        N  0.12654615  0.82184631  0.35588686    -0.46400
H564        H  0.21127042  0.84030735  0.17763503     0.07200
C565        C  0.11202569  0.64228397  0.24697917    -0.06500
Cl566      Cl  0.16545441  0.72880753  0.29265949    -0.49500
C567        C  0.08571365  0.66227853  0.43201940     0.43000
H568        H  0.26133892  0.69824474  0.17544387     0.07200
N569        N  0.07423687  0.68543251  0.24611503    -0.46200
C570        C  0.01738336  0.63863882  0.15253497    -0.25900
C571        C  0.02060386  0.60294563  0.15211752    -0.14000
C572        C  0.04505465  0.58533451  0.17472961     0.36600
C573        C  0.06502194  0.60318735  0.19876214    -0.25400
C574        C  0.06111644  0.63868678  0.20094661    -0.14600
C575        C  0.03751993  0.65681745  0.17661164     0.37700
N576        N  0.03408664  0.69346785  0.17628876    -0.88900
H577        H  0.99865213  0.65214692  0.13478357     0.18800
H578        H  0.08314552  0.58874820  0.21653527     0.18800
N579        N  0.04984076  0.54919494  0.17302587    -0.87900
H580        H  0.01523760  0.70262678  0.15751833     0.36200
H581        H  0.05781763  0.70583304  0.15942068     0.41300
H582        H  0.58079757  0.54801103  0.16088091     0.40900
H583        H  0.04505927  0.53598370  0.20617487     0.35800
C584        C  0.02692580  0.64816329  0.48024360    -0.25900
C585        C  0.06332377  0.64554622  0.47494155    -0.14000
C586        C  0.07734720  0.62712817  0.51093643     0.36600
C587        C  0.05472616  0.60735618  0.04909052    -0.25400
C588        C  0.01864052  0.60877947  0.05039602    -0.14600
C589        C  0.00612326  0.63048960  0.01611723     0.37700
N590        N  0.46902773  0.63404235  0.02438246    -0.88900
H591        H  0.01590633  0.66315932  0.45369026     0.18800
H592        H  0.06456496  0.59108492  0.07563854     0.18800
N593        N  0.11411899  0.62589762  0.51029525    -0.87900
H594        H  0.46294477  0.65027302  0.99654738     0.36200
H595        H  0.46021696  0.64582649  0.05282095     0.41300
H596        H  0.12518010  0.65113133  0.50242404     0.40900
H597        H  0.12525682  0.61116566  0.48590352     0.35800
C598        C  0.22461790  0.57897845  0.11714091    -0.25900
C599        C  0.25803380  0.58552584  0.09088703    -0.14000
C600        C  0.27624335  0.61715196  0.09007414     0.36600
C601        C  0.26216370  0.64027019  0.11876912    -0.25400
C602        C  0.23020252  0.63226552  0.14842786    -0.14600
C603        C  0.21010054  0.60234377  0.14540974     0.37700
N604        N  0.17568100  0.59506441  0.17209869    -0.88900
H605        H  0.21047088  0.55484280  0.11695685     0.18800
H606        H  0.27744251  0.66353278  0.11951321     0.18800
N607        N  0.31016440  0.62484557  0.06271092    -0.87900
H608        H  0.16500872  0.57162843  0.16658837     0.36200
H609        H  0.15979014  0.61447573  0.16074262     0.41300
H610        H  0.32772521  0.62876647  0.08395019     0.40900
H611        H  0.30928779  0.64811570  0.04104117     0.35800
C612        C  0.30485407  0.60950078  0.45908575    -0.25900
C613        C  0.28611304  0.57879817  0.99054393    -0.14000
C614        C  0.25212223  0.57299625  0.98238251     0.36600
C615        C  0.23819644  0.59571228  0.44252046    -0.25400
C616        C  0.25776391  0.62482591  0.41694187    -0.14600
C617        C  0.29241788  0.63062084  0.42427797     0.37700
N618        N  0.31584269  0.65742934  0.39756325    -0.88900
H619        H  0.33051343  0.61514368  0.46594425     0.18800
H620        H  0.21224365  0.58987104  0.43681011     0.18800
N621        N  0.23012426  0.54475272  0.00924709    -0.87900
H622        H  0.30571492  0.68131136  0.40279131     0.36200
H623        H  0.31866005  0.65431204  0.36355863     0.41300
H624        H  0.24184934  0.52169938  0.00266781     0.40900
H625        H  0.20577196  0.54402201  0.99947994     0.37200
C626        C  0.06244584  0.80728123  0.13508352    -0.25900
C627        C  0.09796212  0.80948560  0.13742263    -0.14000
C628        C  0.12098538  0.83164910  0.10361750     0.36600
C629        C  0.10736187  0.85503270  0.07241744    -0.25400
C630        C  0.07127349  0.85620103  0.07475064    -0.14600
C631        C  0.04885415  0.83098492  0.10442009     0.37700
N632        N  0.01185708  0.83212831  0.10719247    -0.88900
H633        H  0.04447042  0.78983571  0.16007748     0.18800
H634        H  0.12462538  0.87454413  0.04950380     0.18800
N635        N  0.15787969  0.83185154  0.10251907    -0.87900
H636        H  0.00069546  0.83629310  0.13979970     0.36200
H637        H  0.00254945  0.80786964  0.10258914     0.41300
H638        H  0.16626747  0.85675721  0.10595126     0.40900
H639        H  0.17002771  0.82670224  0.07075255     0.35800
C640        C  0.05228059  0.82459619  0.45360296    -0.25900
C641        C  0.08045406  0.83798566  0.41926616    -0.14000
C642        C  0.09347914  0.87229225  0.41872046     0.36600
C643        C  0.07814657  0.89185060  0.45221630    -0.25400
C644        C  0.05121185  0.87767980  0.48770095    -0.14600
C645        C  0.03833851  0.84356923  0.48809838     0.37700
N646        N  0.01190285  0.82736958  0.52434257    -0.88900
H647        H  0.04189438  0.79843207  0.45525357     0.18800
H648        H  0.09900383  0.91160325  0.96397730     0.18800
N649        N  0.12280857  0.88700832  0.38514924    -0.87900
H650        H  0.02163580  0.80458136  0.53918753     0.36200
H651        H  0.99054345  0.82036384  0.51061344     0.41300
H652        H  0.14473717  0.87377114  0.39222420     0.40900
H653        H  0.14466319  0.90073609  0.91010956     0.35800
C654        C  0.27833909  0.85542075  0.10482169    -0.25900
C655        C  0.28008553  0.81966471  0.12014690    -0.14000
C656        C  0.30573129  0.80091739  0.09564568     0.36600
C657        C  0.32702437  0.81762939  0.05561347    -0.25400
C658        C  0.32385901  0.85271416  0.03888401    -0.14600
C659        C  0.29991094  0.87210287  0.06453789     0.37700
N660        N  0.29696480  0.90833694  0.04939325    -0.88900
H661        H  0.25952160  0.87036830  0.12372492     0.18800
H662        H  0.34553751  0.80280535  0.03596918     0.18800
N663        N  0.30927943  0.76458973  0.11016761    -0.87900
H664        H  0.27958779  0.91926886  0.07328221     0.36200
H665        H  0.28592346  0.91045330  0.02037285     0.41300
H666        H  0.31997576  0.76240268  0.13956116     0.40900
H667        H  0.32725877  0.75418317  0.08639735     0.35800
C668        C  0.30587031  0.79597089  0.44677922    -0.25900
C669        C  0.30243517  0.83061688  0.45282157    -0.14000
C670        C  0.27374498  0.84862560  0.44115042     0.36600
C671        C  0.25069642  0.83285342  0.41927881    -0.25400
C672        C  0.25684110  0.79982840  0.40738815    -0.14600
C673        C  0.28319268  0.78031950  0.42409123     0.37700
N674        N  0.28833971  0.74542727  0.41589432    -0.88900
H675        H  0.32805904  0.78212731  0.45588087     0.18800
H676        H  0.23008191  0.84798526  0.40793852     0.18800
N677        N  0.27343267  0.88358988  0.94979573    -0.87900
H678        H  0.28637934  0.72952239  0.44715884     0.36200
H679        H  0.31370666  0.74436568  0.39787717     0.41300
H680        H  0.24909541  0.88550616  0.97010672     0.40900
H681        H  0.27366048  0.89876715  0.91838777     0.35800
N682        N  0.33692691  0.86655539  0.49233606    -0.03100
C683        C  0.33731640  0.84919730  0.95780617    -0.00500
C684        C  0.36534562  0.85594415  0.92264520    -0.23400
C685        C  0.38789376  0.87753099  0.93620652    -0.23600
C686        C  0.36582973  0.88797775  0.47700787    -0.00600
H687        H  0.36818830  0.84739812  0.88994152     0.13200
H688        H  0.41158316  0.89010345  0.91560402     0.13200
N689        N  0.04381677  0.89471625  0.52747678    -0.03100
C690        C  0.03135914  0.92690933  0.53110014    -0.00500
C691        C  0.04001430  0.93856251  0.56885072    -0.23400
C692        C  0.05844589  0.91352330  0.58882909    -0.23600
C693        C  0.06024433  0.88724371  0.56306172    -0.00600
H694        H  0.51861584  0.95933580  0.59021479     0.13200
H695        H  0.06736906  0.91327394  0.62058790     0.13200
N696        N  0.29414966  0.56450436  0.52671587    -0.03100
C697        C  0.31045560  0.53404959  0.52893390    -0.00500
C698        C  0.29740120  0.51285446  0.56943495    -0.23400
C699        C  0.27346041  0.53124568  0.59380253    -0.23600
C700        C  0.27254825  0.56286316  0.56715147    -0.00600
H701        H  0.30764533  0.48855462  0.58231204     0.13200
H702        H  0.26046257  0.52362302  0.62853746     0.13200
N703        N  0.44306220  0.93722555  0.99685455    -0.36200
N704        N  0.46835047  0.99898738  0.51879809    -0.56800
N705        N  0.40851279  0.54166513  0.51183204    -0.36200
N706        N  0.37858732  0.97493394  0.00087691    -0.56800
C707        C  0.47154569  0.92507252  0.01254206     0.27400
C708        C  0.41765677  0.91189755  0.00952314     0.27400
C709        C  0.42494909  0.55662525  0.54036011     0.27400
C710        C  0.37395082  0.54644336  0.52377617     0.27400
C711        C  0.49677631  0.98072062  0.50657545     0.36000
C712        C  0.48221471  0.53298724  0.51741379     0.36000
C713        C  0.36982120  0.94562485  0.98605643     0.36000
C714        C  0.34915003  0.00228096  0.49318099     0.36000
C715        C  0.46378702  0.89178081  0.03590863    -0.21500
C716        C  0.43001694  0.88298481  0.03271143    -0.21500
C717        C  0.40086247  0.57304427  0.56858501    -0.21500
C718        C  0.36873726  0.56651960  0.55824428    -0.21500
C719        C  0.03242862  0.00095191  0.49812188    -0.22600
C720        C  0.01918257  0.53548029  0.50864696    -0.22600
C721        C  0.34167605  0.95090485  0.96413015    -0.22600
C722        C  0.33196183  0.98423888  0.96758201    -0.22600
C723        C  0.50347393  0.94438629  0.00721611    -0.17900
C724        C  0.38494161  0.91356824  0.99643677    -0.17900
C725        C  0.34707402  0.53010334  0.50733706    -0.17900
C726        C  0.46077370  0.55430614  0.54307904    -0.17900
H727        H  0.47999944  0.87609199  0.05510880     0.15000
H728        H  0.41577037  0.85864003  0.04695393     0.15000
H729        H  0.40568055  0.58709176  0.59518959     0.15000
H730        H  0.34422818  0.57358956  0.57654433     0.15000
H731        H  0.05925457  0.99336671  0.49286330     0.13300
H732        H  0.03567752  0.55718450  0.51112850     0.13300
H733        H  0.32830963  0.93215727  0.94953017     0.13300
H734        H  0.30923427  0.99612052  0.95720465     0.13300
H735        H  0.44182607  0.96045561  0.97544815     0.26500
H736        H  0.41996710  0.52825190  0.48616101     0.26500
N737        N  0.49534320  0.58659626  0.59006554    -0.03100
C738        C  0.99838161  0.58357850  0.63359961    -0.00500
C739        C  0.47378093  0.55619469  0.65855559    -0.23400
C740        C  0.45757422  0.54340885  0.62742449    -0.23600
C741        C  0.47128663  0.56230602  0.58554222    -0.00600
H742        H  0.46961363  0.54688851  0.69451443     0.13200
H743        H  0.43825327  0.52211423  0.63438408     0.13200
C744        C  0.24365730  0.64583612  0.88768472     0.42800
N745        N  0.20529241  0.66337163  0.84681604     0.01700
C746        C  0.22280022  0.81384775  0.68698159    -0.06100
H747        H  0.19811970  0.82647616  0.86442594     0.07200
C748        C  0.08466947  0.78044289  0.88175351    -0.06500
Co749      Co  0.23220398  0.72560988  0.77824612     0.74200
N750        N  0.21096693  0.78834914  0.82031974    -0.25700
Co751      Co  0.17312807  0.79084959  0.77993784     0.74100
C752        C  0.09869783  0.81409880  0.88860909     0.43000
N753        N  0.10443220  0.69261549  0.86975774     0.01400
N754        N  0.13367870  0.79392819  0.83578407     0.01500
N755        N  0.26040101  0.77067569  0.68690337    -0.46500
H756        H  0.28125989  0.69241553  0.85168198     0.07200
N757        N  0.23354112  0.76345400  0.81946198     0.01700
N758        N  0.13536290  0.78778844  0.74052599     0.01500
C759        C  0.11065219  0.79026154  0.68293536     0.43100
N760        N  0.12711346  0.66781973  0.86965223    -0.25100
C761        C  0.24129646  0.68434005  0.69658139    -0.06000
N762        N  0.21166934  0.63856723  0.87871722    -0.46200
N763        N  0.13718016  0.80382371  0.69873643    -0.46500
C764        C  0.22126625  0.65623289  0.68436984     0.42900
N765        N  0.23479159  0.76472559  0.72267520     0.01700
N766        N  0.12329094  0.66345920  0.77581257    -0.25100
N767        N  0.23122890  0.68674040  0.83361103    -0.25600
N768        N  0.10080236  0.68819406  0.77535946     0.01400
H769        H  0.12813259  0.61651078  0.74613630     0.07300
H770        H  0.06887081  0.74839264  0.71941599     0.07300
N771        N  0.21248636  0.78962604  0.72363018    -0.25700
N772        N  0.10797212  0.77018281  0.84845471    -0.25300
N773        N  0.19972503  0.66394177  0.75196849     0.01700
C774        C  0.24097682  0.78794659  0.87574467     0.43100
C775        C  0.11992469  0.64691303  0.90951330    -0.06500
N776        N  0.10897786  0.76462824  0.75324993    -0.25300
H777        H  0.06002407  0.76694304  0.89719513     0.07300
N778        N  0.25209387  0.76252619  0.85182824    -0.46500
H779        H  0.13176763  0.62242747  0.91685517     0.07300
C780        C  0.08397518  0.65322121  0.73402333     0.43000
C781        C  0.25650927  0.67822616  0.85745863    -0.06000
Co782      Co  0.16387904  0.66381555  0.81161467     0.73800
N783        N  0.08173166  0.68986369  0.90818087    -0.46200
C784        C  0.25477987  0.80123926  0.66234413     0.43200
N785        N  0.19642191  0.64469721  0.72062295    -0.46200
Co786      Co  0.10463891  0.72900108  0.81211236     0.73900
C787        C  0.09136160  0.76496565  0.71935816    -0.06600
C788        C  0.21414159  0.80564898  0.85435173    -0.06100
N789        N  0.22568747  0.68753447  0.73873958    -0.25600
N790        N  0.12904061  0.82053569  0.85856124    -0.46400
H791        H  0.21050840  0.83818003  0.68002821     0.07200
C792        C  0.11462184  0.63997456  0.75116076    -0.06500
Cl793      Cl  0.16845634  0.72730572  0.79573988    -0.49500
C794        C  0.09011980  0.66198084  0.93546568     0.43000
H795        H  0.26265144  0.70087661  0.67635541     0.07200
N796        N  0.07668721  0.68299123  0.75098644    -0.46200
C797        C  0.02084460  0.63822073  0.65494653    -0.25900
C798        C  0.02289615  0.60239298  0.65482316    -0.14000
C799        C  0.04595365  0.58383499  0.67906478     0.36600
C800        C  0.06606089  0.60102879  0.70368611    -0.25400
C801        C  0.06332306  0.63669456  0.70537722    -0.14600
C802        C  0.04080793  0.65563051  0.68004035     0.37700
N803        N  0.03818036  0.69234208  0.67988879    -0.88900
H804        H  0.00294322  0.65241933  0.63643884     0.18800
H805        H  0.08319636  0.58598827  0.72253755     0.18800
N806        N  0.04890472  0.54730295  0.67882423    -0.87900
H807        H  0.01995204  0.70215533  0.66051051     0.36200
H808        H  0.06234268  0.70420960  0.66382015     0.41300
H809        H  0.57355108  0.54195429  0.66619037     0.40900
H810        H  0.04275032  0.53474231  0.71226190     0.35800
C811        C  0.03005644  0.64808166  0.97919568    -0.25900
C812        C  0.06623581  0.64480760  0.97646427    -0.14000
C813        C  0.07854909  0.62542164  0.01306422     0.36600
C814        C  0.05490852  0.60977989  0.54915981    -0.25400
C815        C  0.01854602  0.60999063  0.55257099    -0.14600
C816        C  0.00444663  0.63078840  0.51891260     0.37700
N817        N  0.46709571  0.63294499  0.52428230    -0.88900
H818        H  0.02036119  0.66388385  0.95207365     0.18800
H819        H  0.06603200  0.59435497  0.57525168     0.18800
N820        N  0.11484435  0.62448011  0.01565088    -0.87900
H821        H  0.46127578  0.64988463  0.49689472     0.36200
H822        H  0.45779360  0.64379699  0.55335757     0.41300
H823        H  0.12528064  0.64990646  0.01068579     0.40900
H824        H  0.12779288  0.61127108  0.99062653     0.35800
C825        C  0.22140355  0.58745545  0.60937128    -0.25900
C826        C  0.25539763  0.59264946  0.58458598    -0.14000
C827        C  0.27488698  0.62325892  0.58515761     0.36600
C828        C  0.26183713  0.64583919  0.61520721    -0.25400
C829        C  0.22978910  0.63803916  0.64480464    -0.14600
C830        C  0.20807139  0.61015765  0.63917350     0.37700
N831        N  0.17338781  0.60385900  0.66535152    -0.88900
H832        H  0.20615057  0.56433950  0.60769582     0.18800
H833        H  0.27819396  0.66792838  0.61765840     0.18800
N834        N  0.30910494  0.63007289  0.55831780    -0.87900
H835        H  0.16135036  0.58186929  0.65770942     0.36200
H836        H  0.15872094  0.62488485  0.65565065     0.41300
H837        H  0.32668593  0.63254764  0.58002217     0.40900
H838        H  0.30926521  0.65391105  0.53743920     0.35800
C839        C  0.30790932  0.60489878  0.96198499    -0.25900
C840        C  0.28404877  0.58211787  0.48620769    -0.14000
C841        C  0.25104915  0.57420924  0.47641388     0.36600
C842        C  0.23963454  0.59514452  0.94862510    -0.25400
C843        C  0.26041937  0.62287105  0.92137730    -0.14600
C844        C  0.29565450  0.62682014  0.92751573     0.37700
N845        N  0.31979846  0.65264618  0.89991340    -0.88900
H846        H  0.33425248  0.60901609  0.96752671     0.18800
H847        H  0.21306928  0.59077978  0.94410290     0.18800
N848        N  0.23019152  0.54483300  0.50231420    -0.87900
H849        H  0.31112456  0.67702143  0.90555205     0.36200
H850        H  0.32120723  0.64975644  0.86600506     0.41300
H851        H  0.24352544  0.52255273  0.49597335     0.40900
H852        H  0.20638911  0.54266637  0.49144842     0.37200
C853        C  0.06207581  0.80767803  0.64426852    -0.25900
C854        C  0.09811249  0.80672156  0.64278142    -0.14000
C855        C  0.12121726  0.82601921  0.60621477     0.36600
C856        C  0.10779155  0.84902081  0.57446275    -0.25400
C857        C  0.07186074  0.85335719  0.57981544    -0.14600
C858        C  0.04875750  0.83163782  0.61379363     0.37700
N859        N  0.01200033  0.83678603  0.62079139    -0.88900
H860        H  0.04401856  0.79284282  0.67206116     0.18800
H861        H  0.12553948  0.86618002  0.54870016     0.18800
N862        N  0.15821801  0.82383119  0.60280433    -0.87900
H863        H  0.00438338  0.84360102  0.65299768     0.36200
H864        H  0.99909326  0.81315041  0.62033633     0.41300
H865        H  0.16881804  0.84857288  0.60321136     0.40900
H866        H  0.16836310  0.81642338  0.57155357     0.35800
C867        C  0.04829099  0.83086961  0.94431531    -0.25900
C868        C  0.08239519  0.83839601  0.91971508    -0.14000
C869        C  0.10048064  0.86859272  0.92622531     0.36600
C870        C  0.08438521  0.88962682  0.95741497    -0.25400
C871        C  0.05099691  0.88105732  0.98359019    -0.14600
C872        C  0.03291416  0.85128146  0.97652190     0.37700
N873        N  0.99939092  0.84063655  0.00307373    -0.88900
H874        H  0.03364574  0.80819283  0.93992577     0.18800
H875        H  0.08902263  0.91750372  0.45271932     0.18800
N876        N  0.13562819  0.87725133  0.90266519    -0.87900
H877        H  0.00070845  0.81535536  0.01958212     0.36200
H878        H  0.98168470  0.84007874  0.98109330     0.41300
H879        H  0.15146864  0.85824534  0.91517230     0.40900
H880        H  0.12786870  0.91288883  0.38817081     0.35800
C881        C  0.27503408  0.85454309  0.60488998    -0.25900
C882        C  0.27892229  0.81923610  0.62086685    -0.14000
C883        C  0.30534288  0.80147380  0.59615014     0.36600
C884        C  0.32533759  0.81857427  0.55535982    -0.25400
C885        C  0.32040385  0.85323441  0.53846148    -0.14600
C886        C  0.29558908  0.87173047  0.56416996     0.37700
N887        N  0.29087670  0.90758993  0.54871894    -0.88900
H888        H  0.25551509  0.86879369  0.62379375     0.18800
H889        H  0.34444192  0.80444303  0.53552207     0.18800
N890        N  0.31111986  0.76575030  0.61140619    -0.87900
H891        H  0.27241769  0.91775734  0.57215076     0.36200
H892        H  0.28050795  0.90890547  0.51922420     0.41300
H893        H  0.32226633  0.76500537  0.64031253     0.40900
H894        H  0.32951777  0.75589994  0.58754359     0.35800
C895        C  0.30849374  0.79514962  0.94816623    -0.25900
C896        C  0.30581719  0.82997036  0.95373112    -0.14000
C897        C  0.27694094  0.84819324  0.94304941     0.36600
C898        C  0.25333913  0.83262906  0.92163831    -0.25400
C899        C  0.25888507  0.79941674  0.91003283    -0.14600
C900        C  0.28494278  0.77951848  0.92676568     0.37700
N901        N  0.28880732  0.74414114  0.91993634    -0.88900
H902        H  0.33055294  0.78096935  0.95704626     0.18800
H903        H  0.23268176  0.84788794  0.91060143     0.18800
N904        N  0.27020284  0.88424610  0.44683280    -0.87900
H905        H  0.28691988  0.72880477  0.95158294     0.36200
H906        H  0.31381705  0.74203334  0.90145336     0.41300
H907        H  0.24552807  0.88661224  0.46598835     0.40900
H908        H  0.27135786  0.89900905  0.41490806     0.35800
N909        N  0.83821952  0.36130278  0.00353698    -0.03100
C910        C  0.83420455  0.34762039  0.46374248    -0.00500
C911        C  0.86232229  0.35235856  0.42856952    -0.23400
C912        C  0.88645674  0.37252312  0.44162287    -0.23600
C913        C  0.87004362  0.37853379  0.99132887    -0.00600
H914        H  0.86429807  0.34343372  0.39618684     0.13200
H915        H  0.91053938  0.38378194  0.42054198     0.13200
N916        N  0.54635946  0.39952030  0.03169566    -0.03100
C917        C  0.53301675  0.43159134  0.03299637    -0.00500
C918        C  0.54009251  0.44474269  0.07056834    -0.23400
C919        C  0.55820729  0.42064835  0.09291481    -0.23600
C920        C  0.56154680  0.39339210  0.06867599    -0.00600
H921        H  0.03415143  0.47110834  0.07189507     0.13200
H922        H  0.56551054  0.42152235  0.12544843     0.13200
N923        N  0.79071932  0.05994587  0.03514966    -0.03100
C924        C  0.80816305  0.03017292  0.03622823    -0.00500
C925        C  0.79624676  0.00830565  0.07654835    -0.23400
C926        C  0.77185625  0.02565423  0.10190728    -0.23600
C927        C  0.76960485  0.05738800  0.07607548    -0.00600
H928        H  0.80747959  0.98432743  0.08858696     0.13200
H929        H  0.75971693  0.01745817  0.13688162     0.13200
N930        N  0.94215675  0.43659066  0.49919666    -0.36200
N931        N  0.97031919  0.50051573  0.01172085    -0.56800
N932        N  0.90654092  0.03882029  0.01551077    -0.36200
N933        N  0.87789892  0.47290481  0.49966416    -0.56800
C934        C  0.97071237  0.42542742  0.51537408     0.27400
C935        C  0.91746590  0.41053168  0.51159874     0.27400
C936        C  0.92370351  0.05363487  0.04354989     0.27400
C937        C  0.87195890  0.04322213  0.02880494     0.27400
C938        C  0.99905981  0.48344131  0.99751957     0.36000
C939        C  0.98141298  0.03073640  0.01868172     0.36000
C940        C  0.86942978  0.44281812  0.48645727     0.36000
C941        C  0.85057034  0.49480837  0.99375589     0.36000
C942        C  0.96381527  0.39190740  0.53852614    -0.21500
C943        C  0.93041740  0.38214739  0.53507431    -0.21500
C944        C  0.89990630  0.06941666  0.07298848    -0.21500
C945        C  0.86738495  0.06267040  0.06388913    -0.21500
C946        C  0.53436752  0.50502915  0.99527218    -0.22600
C947        C  0.52203240  0.03411619  0.00544280    -0.22600
C948        C  0.84163096  0.44704857  0.46379120    -0.22600
C949        C  0.83198987  0.48065933  0.46475274    -0.22600
C950        C  0.00199843  0.44563794  0.51060413    -0.17900
C951        C  0.88474545  0.41118539  0.49854624    -0.17900
C952        C  0.84452176  0.02728555  0.01276118    -0.17900
C953        C  0.95996351  0.05187761  0.04481581    -0.17900
H954        H  0.98031714  0.37651419  0.55762086     0.15000
H955        H  0.91681547  0.35746861  0.54926422     0.15000
H956        H  0.90520168  0.08325800  0.09955471     0.15000
H957        H  0.84307466  0.06929793  0.08317706     0.15000
H958        H  0.56128570  0.49777839  0.98935862     0.13300
H959        H  0.53879920  0.05582883  0.00751817     0.13300
H960        H  0.82856204  0.42758547  0.45005753     0.13300
H961        H  0.80929708  0.49190726  0.45346208     0.13300
H962        H  0.94058350  0.45968931  0.47763733     0.26500
H963        H  0.91755756  0.02591907  0.98908475     0.26500
N964        N  0.99575813  0.08488622  0.09034092    -0.03100
C965        C  0.50044968  0.07946743  0.13575853    -0.00500
C966        C  0.97553231  0.05399097  0.15910543    -0.23400
C967        C  0.95870774  0.04126208  0.12857650    -0.23600
C968        C  0.97145082  0.06042985  0.08654848    -0.00600
H969        H  0.97186595  0.04474340  0.19504705     0.13200
H970        H  0.93950638  0.01984209  0.13603130     0.13200
C971        C  0.73787055  0.14321049  0.39936630     0.42800
N972        N  0.70020423  0.16086928  0.35737535     0.01700
C973        C  0.72009034  0.31002314  0.19506397    -0.06100
H974        H  0.69283971  0.32409600  0.37291387     0.07200
C975        C  0.58002402  0.27911912  0.38761681    -0.06500
Co976      Co  0.72831223  0.22261964  0.28839693     0.74200
N977        N  0.70651750  0.28577068  0.32925038    -0.25700
Co978      Co  0.66949594  0.28820768  0.28756265     0.74100
C979        C  0.59419925  0.31285002  0.39411959     0.43000
N980        N  0.59930815  0.19035075  0.37662583     0.01400
N981        N  0.62948026  0.29187266  0.34244407     0.01500
N982        N  0.75741819  0.26661612  0.19675234    -0.46500
H983        H  0.77599673  0.18949107  0.36351555     0.07200
N984        N  0.72898752  0.26078991  0.32938255     0.01700
N985        N  0.63231580  0.28536371  0.24709811     0.01500
C986        C  0.60697068  0.29021960  0.18978617     0.43100
N987        N  0.62211608  0.16567479  0.37722308    -0.25100
C988        C  0.73958643  0.17957888  0.20779758    -0.06000
N989        N  0.70604094  0.13611603  0.38974100    -0.46200
N990        N  0.63409773  0.30233228  0.20581027    -0.46500
C991        C  0.72042954  0.15042983  0.19638169     0.42900
N992        N  0.73162509  0.26131788  0.23228951     0.01700
N993        N  0.62021987  0.16137837  0.28263122    -0.25100
N994        N  0.72634307  0.18404400  0.34447790    -0.25600
N995        N  0.59783263  0.18620712  0.28105118     0.01400
H996        H  0.62641705  0.11484723  0.25230452     0.07300
H997        H  0.56410578  0.24904964  0.22569647     0.07300
N998        N  0.70944860  0.28634243  0.23221131    -0.25700
N999        N  0.60351899  0.26834869  0.35488874    -0.25300
N1000       N  0.69680062  0.16049160  0.26220480     0.01700
C1001       C  0.73539425  0.28564161  0.38586257     0.43100
C1002       C  0.61487280  0.14505195  0.41728465    -0.06500
N1003       N  0.60546401  0.26273691  0.25940424    -0.25300
H1004       H  0.55495954  0.26622490  0.40241815     0.07300
N1005       N  0.74686580  0.26001675  0.36246516    -0.46500
H1006       H  0.62712576  0.12091718  0.42557091     0.07300
C1007       C  0.58323070  0.15193523  0.23729744     0.43000
C1008       C  0.75118963  0.17544913  0.36899947    -0.06000
Co1009     Co  0.65975462  0.16133875  0.32042599     0.73800
N1010       N  0.57630267  0.18764377  0.41486941    -0.46200
C1011       C  0.75205890  0.29682847  0.17128872     0.43200
N1012       N  0.69477625  0.13986718  0.23200518    -0.46200
Co1013     Co  0.60053867  0.22693366  0.31844512     0.73900
C1014       C  0.58732019  0.26460571  0.22572645    -0.06600
C1015       C  0.70901677  0.30320894  0.36339181    -0.06100
N1016       N  0.72275683  0.18407402  0.24901329    -0.25600
N1017       N  0.62486737  0.31875716  0.36472811    -0.46400
H1018       H  0.70792940  0.33428607  0.18706898     0.07200
C1019       C  0.61282005  0.13834665  0.25666575    -0.06500
Cl1020     Cl  0.66451247  0.22477247  0.30391523    -0.49500
C1021       C  0.58488951  0.16007857  0.44262492     0.43000
H1022       H  0.76131383  0.19569543  0.18770514     0.07200
N1023       N  0.57512938  0.18152069  0.25444210    -0.46200
C1024       C  0.52236702  0.13495396  0.15599419    -0.25900
C1025       C  0.52376095  0.09882088  0.15823503    -0.14000
C1026       C  0.54553717  0.08074782  0.18498076     0.36600
C1027       C  0.56517913  0.09872009  0.20933152    -0.25400
C1028       C  0.56308152  0.13470632  0.20864948    -0.14600
C1029       C  0.54163648  0.15311929  0.18118483     0.37700
N1030       N  0.53929490  0.19002330  0.17911859    -0.88900
H1031       H  0.50547150  0.14884308  0.13556598     0.18800
H1032       H  0.58138592  0.08400957  0.22995891     0.18800
N1033       N  0.54772248  0.04390534  0.18757949    -0.87900
H1034       H  0.52183840  0.19942298  0.15828967     0.36200
H1035       H  0.56379882  0.20143608  0.16381727     0.41300
H1036       H  0.07877158  0.04650504  0.16356665     0.40900
H1037       H  0.54028507  0.03272442  0.22148497     0.35800
C1038       C  0.52548639  0.14292708  0.48649548    -0.25900
C1039       C  0.56174577  0.14319983  0.48443916    -0.14000
C1040       C  0.57502236  0.12735425  0.52237139     0.36600
C1041       C  0.55765672  0.10615937  0.05301889    -0.25400
C1042       C  0.52145971  0.10722660  0.05579611    -0.14600
C1043       C  0.50785616  0.12958566  0.02312379     0.37700
N1044       N  0.96763182  0.13000862  0.02265480    -0.88900
H1045       H  0.51507663  0.15589297  0.45804289     0.18800
H1046       H  0.56819810  0.08915928  0.07830759     0.18800
N1047       N  0.61129771  0.13012048  0.52486649    -0.87900
H1048       H  0.96195238  0.14643890  0.99472922     0.36200
H1049       H  0.95783893  0.14126205  0.05123305     0.41300
H1050       H  0.61938430  0.15634284  0.51848120     0.40900
H1051       H  0.62570105  0.11728634  0.50042110     0.35800
C1052       C  0.71956206  0.08138417  0.12150316    -0.25900
C1053       C  0.75306314  0.08681138  0.09535647    -0.14000
C1054       C  0.77279993  0.11732813  0.09576913     0.36600
C1055       C  0.76071972  0.13939534  0.12703046    -0.25400
C1056       C  0.72892379  0.13170641  0.15719023    -0.14600
C1057       C  0.70683591  0.10401911  0.15172104     0.37700
N1058       N  0.67213445  0.09817049  0.17791077    -0.88900
H1059       H  0.70403039  0.05841504  0.11997272     0.18800
H1060       H  0.77732715  0.16134761  0.12932932     0.18800
N1061       N  0.80613952  0.12483256  0.06685865    -0.87900
H1062       H  0.65973311  0.07640162  0.17023697     0.36200
H1063       H  0.65780762  0.11944297  0.16810555     0.41300
H1064       H  0.82478658  0.12729341  0.08712415     0.40900
H1065       H  0.80524853  0.14883117  0.04673511     0.35800
C1066       C  0.80309173  0.10024180  0.47078603    -0.25900
C1067       C  0.78067498  0.07863792  0.99515868    -0.14000
C1068       C  0.74703396  0.07266888  0.98598039     0.36600
C1069       C  0.73402338  0.09184651  0.45978864    -0.25400
C1070       C  0.75477711  0.11957894  0.43238529    -0.14600
C1071       C  0.79024173  0.12308022  0.43780148     0.37700
N1072       N  0.81401593  0.14968685  0.41131368    -0.88900
H1073       H  0.82965128  0.10406910  0.47568256     0.18800
H1074       H  0.70713283  0.08808725  0.45619909     0.18800
N1075       N  0.72501519  0.04406242  0.01188211    -0.87900
H1076       H  0.80501721  0.17368223  0.41834002     0.36200
H1077       H  0.81553199  0.14776520  0.37711799     0.41300
H1078       H  0.73706274  0.02121209  0.00500816     0.40900
H1079       H  0.70091821  0.04332960  0.00145465     0.37200
C1080       C  0.55887886  0.31385069  0.15360815    -0.25900
C1081       C  0.59461984  0.30887630  0.15057706    -0.14000
C1082       C  0.61856452  0.32676106  0.11368358     0.36600
C1083       C  0.60671267  0.35195064  0.08280397    -0.25400
C1084       C  0.57144794  0.35957707  0.08900719    -0.14600
C1085       C  0.54725065  0.33986643  0.12387855     0.37700
N1086       N  0.51129329  0.34842233  0.13156906    -0.88900
H1087       H  0.54024404  0.30026276  0.18181919     0.18800
H1088       H  0.62539277  0.36753104  0.05641409     0.18800
N1089       N  0.65507570  0.32063989  0.10895985    -0.87900
H1090       H  0.50500415  0.35509612  0.16403971     0.36200
H1091       H  0.49612286  0.32625230  0.13074224     0.41300
H1092       H  0.66838804  0.34401707  0.10958008     0.40900
H1093       H  0.66341802  0.31311646  0.07729852     0.35800
C1094       C  0.54969271  0.32536316  0.45982008    -0.25900
C1095       C  0.57836243  0.33712884  0.42546748    -0.14000
C1096       C  0.59186284  0.37149625  0.42278749     0.36600
C1097       C  0.57721165  0.39257132  0.45470329    -0.25400
C1098       C  0.54955271  0.38016883  0.49022282    -0.14600
C1099       C  0.53576290  0.34609179  0.49237547     0.37700
N1100       N  0.50829430  0.33171414  0.52840316    -0.88900
H1101       H  0.53878110  0.29922805  0.46289276     0.18800
H1102       H  0.58863323  0.42169704  0.95370010     0.18800
N1103       N  0.62090488  0.38507055  0.38833334    -0.87900
H1104       H  0.51695218  0.30912145  0.54521998     0.36200
H1105       H  0.48719900  0.32464915  0.51418441     0.41300
H1106       H  0.64105505  0.39227020  0.40412276     0.40900
H1107       H  0.62484513  0.41672578  0.88692977     0.35800
C1108       C  0.77564957  0.35017689  0.11582090    -0.25900
C1109       C  0.77683553  0.31422091  0.13021221    -0.14000
C1110       C  0.80143292  0.29524498  0.10458991     0.36600
C1111       C  0.82258036  0.31208822  0.06457039    -0.25400
C1112       C  0.82035654  0.34759928  0.04904118    -0.14600
C1113       C  0.79731797  0.36708799  0.07578572     0.37700
N1114       N  0.79560125  0.40372114  0.06224778    -0.88900
H1115       H  0.75750085  0.36520476  0.13559455     0.18800
H1116       H  0.84045622  0.29714253  0.04423955     0.18800
N1117       N  0.80407137  0.25862556  0.11807723    -0.87900
H1118       H  0.77910904  0.41459094  0.08708760     0.36200
H1119       H  0.78403032  0.40722668  0.03364566     0.41300
H1120       H  0.81557986  0.25552390  0.14682992     0.40900
H1121       H  0.82108291  0.24809431  0.09339623     0.35800
C1122       C  0.80236295  0.29397310  0.45895303    -0.25900
C1123       C  0.80170551  0.32954569  0.46068410    -0.14000
C1124       C  0.77422820  0.34864337  0.44694301     0.36600
C1125       C  0.74999565  0.33271305  0.42683535    -0.25400
C1126       C  0.75364073  0.29829435  0.41912155    -0.14600
C1127       C  0.77838030  0.27806889  0.43840177     0.37700
N1128       N  0.78057141  0.24193187  0.43490849    -0.88900
H1129       H  0.82337305  0.27918357  0.46998585     0.18800
H1130       H  0.73048566  0.34841578  0.41354679     0.18800
N1131       N  0.76897699  0.37638901  0.96765641    -0.87900
H1132       H  0.77768922  0.22804603  0.46758787     0.36200
H1133       H  0.80553037  0.23801769  0.41755456     0.41300
H1134       H  0.74476401  0.37540288  0.98926763     0.40900
H1135       H  0.76780304  0.39390152  0.93849070     0.35800
N1136       N  0.83959059  0.36400610  0.49831491    -0.03100
C1137       C  0.83564202  0.34470317  0.96803614    -0.00500
C1138       C  0.86482568  0.35084303  0.93449953    -0.23400
C1139       C  0.88669252  0.37228604  0.94930355    -0.23600
C1140       C  0.87206550  0.37953566  0.48418718    -0.00600
H1141       H  0.86890681  0.34203910  0.90189958     0.13200
H1142       H  0.91085247  0.38466337  0.92975458     0.13200
N1143       N  0.54207164  0.39898064  0.52843416    -0.03100
C1144       C  0.52955063  0.43148551  0.52955519    -0.00500
C1145       C  0.53913377  0.44542221  0.56528214    -0.23400
C1146       C  0.55816934  0.42162807  0.58642607    -0.23600
C1147       C  0.55942947  0.39369461  0.56351086    -0.00600
H1148       H  0.03183465  0.46567120  0.58123812     0.13200
H1149       H  0.56773901  0.42329655  0.61736450     0.13200
N1150       N  0.79257879  0.05574722  0.53910973    -0.03100
C1151       C  0.81139254  0.02673800  0.54121928    -0.00500
C1152       C  0.80214456  0.00683868  0.58361706    -0.23400
C1153       C  0.77815595  0.02463326  0.60891465    -0.23600
C1154       C  0.77328932  0.05460649  0.58101345    -0.00600
H1155       H  0.81501280  0.98417967  0.59657112     0.13200
H1156       H  0.76789259  0.01803965  0.64475525     0.13200
N1157       N  0.93875243  0.43667611  0.00289675    -0.36200
N1158       N  0.97258375  0.49988412  0.51410845    -0.56800
N1159       N  0.90973752  0.03641055  0.51566929    -0.36200
N1160       N  0.87354385  0.47194177  0.00737647    -0.56800
C1161       C  0.96870451  0.42616832  0.01595347     0.27400
C1162       C  0.91439819  0.41059488  0.01852658     0.27400
C1163       C  0.92730356  0.05314131  0.54163238     0.27400
C1164       C  0.87522163  0.04117396  0.52906528     0.27400
C1165       C  0.00164548  0.48237327  0.50250769     0.36000
C1166       C  0.98516848  0.02975111  0.51848729     0.36000
C1167       C  0.86498278  0.44142780  0.99530807     0.36000
C1168       C  0.85485800  0.49599887  0.48684044     0.36000
C1169       C  0.96310215  0.39292926  0.04025073    -0.21500
C1170       C  0.92896941  0.38274175  0.04089302    -0.21500
C1171       C  0.90388555  0.07053869  0.56942492    -0.21500
C1172       C  0.87120413  0.06293643  0.56162698    -0.21500
C1173       C  0.52944177  0.50548804  0.49295887    -0.22600
C1174       C  0.51596257  0.03134696  0.51979874    -0.22600
C1175       C  0.83707841  0.44513022  0.97273216    -0.22600
C1176       C  0.82740223  0.47884550  0.97275348    -0.22600
C1177       C  0.00010182  0.44686041  0.00725971    -0.17900
C1178       C  0.88100484  0.41015409  0.00734174    -0.17900
C1179       C  0.84721935  0.02383019  0.51575937    -0.17900
C1180       C  0.96352188  0.05157070  0.54318137    -0.17900
H1181       H  0.98112498  0.37788165  0.05703708     0.15000
H1182       H  0.91615683  0.35794592  0.05641879     0.15000
H1183       H  0.90957570  0.08603554  0.59419583     0.15000
H1184       H  0.84714969  0.07073355  0.58022242     0.15000
H1185       H  0.55639367  0.49862202  0.48514539     0.13300
H1186       H  0.53304940  0.05110988  0.52652571     0.13300
H1187       H  0.82405822  0.42531091  0.95951456     0.13300
H1188       H  0.80482943  0.48995347  0.96097713     0.13300
H1189       H  0.93593300  0.45915788  0.98089473     0.26500
H1190       H  0.92043517  0.02193669  0.49077589     0.26500
N1191       N  0.99868770  0.08560951  0.58842133    -0.03100
C1192       C  0.49499713  0.08298548  0.64241192    -0.00500
C1193       C  0.97922393  0.05421424  0.65711306    -0.23400
C1194       C  0.96230881  0.04142086  0.62675732    -0.23600
C1195       C  0.97461863  0.06082689  0.58480861    -0.00600
H1196       H  0.97601066  0.04462450  0.69292768     0.13200
H1197       H  0.94354614  0.01961980  0.63418778     0.13200
C1198       C  0.73965958  0.14634702  0.89207663     0.42800
N1199       N  0.70187321  0.16440559  0.85077457     0.01700
C1200       C  0.72229643  0.31465828  0.69093282    -0.06100
H1201       H  0.69843455  0.32686208  0.86952774     0.07200
C1202       C  0.58425691  0.28289437  0.88704659    -0.06500
Co1203     Co  0.72974037  0.22591041  0.78189721     0.74200
N1204       N  0.71013190  0.28904466  0.82453092    -0.25700
Co1205     Co  0.67211484  0.29264539  0.78416043     0.74100
C1206       C  0.59883584  0.31620290  0.89404074     0.43000
N1207       N  0.60214458  0.19506187  0.87450609     0.01400
N1208       N  0.63294144  0.29624494  0.84028792     0.01500
N1209       N  0.75846877  0.27028484  0.69098749    -0.46500
H1210       H  0.77847831  0.19174702  0.85514095     0.07200
N1211       N  0.73205634  0.26358235  0.82327296     0.01700
N1212       N  0.63395759  0.29079663  0.74491157     0.01500
C1213       C  0.60818564  0.29587932  0.68796009     0.43100
N1214       N  0.62474871  0.17025070  0.87346334    -0.25100
C1215       C  0.73890046  0.18238109  0.70139806    -0.06000
N1216       N  0.70755474  0.13968578  0.88315307    -0.46200
N1217       N  0.63548598  0.30791761  0.70370295    -0.46500
C1218       C  0.71918344  0.15313775  0.69091392     0.42900
N1219       N  0.73273049  0.26497083  0.72656372     0.01700
N1220       N  0.62018505  0.16654991  0.77983081    -0.25100
N1221       N  0.72830692  0.18712339  0.83728209    -0.25600
N1222       N  0.59785029  0.19142649  0.77967250     0.01400
H1223       H  0.62495276  0.11992042  0.74989749     0.07300
H1224       H  0.56579810  0.25423347  0.72388703     0.07300
N1225       N  0.71123110  0.29058458  0.72757503    -0.25700
N1226       N  0.60695190  0.27279190  0.85307746    -0.25300
N1227       N  0.69626396  0.16448520  0.75637905     0.01700
C1228       C  0.74033569  0.28702452  0.88018037     0.43100
C1229       C  0.61888548  0.14943016  0.91325305    -0.06500
N1230       N  0.60707287  0.26816193  0.75751920    -0.25300
H1231       H  0.55940557  0.26980377  0.90251068     0.07300
N1232       N  0.75057319  0.26167641  0.85574899    -0.46500
H1233       H  0.63114842  0.12509601  0.91962691     0.07300
C1234       C  0.58074696  0.15672327  0.73820198     0.43000
C1235       C  0.75336802  0.17820275  0.86127369    -0.06000
Co1236     Co  0.66067353  0.16573618  0.81556950     0.73800
N1237       N  0.58050072  0.19218358  0.91394860    -0.46200
C1238       C  0.75395575  0.30118738  0.66652389     0.43200
N1239       N  0.69363637  0.14336279  0.72692358    -0.46200
Co1240     Co  0.60244347  0.23196559  0.81661506     0.73900
C1241       C  0.58880271  0.27006892  0.72395590    -0.06600
C1242       C  0.71388047  0.30577035  0.85900581    -0.06100
N1243       N  0.72249254  0.18767399  0.74245934    -0.25600
N1244       N  0.62898574  0.32261801  0.86359045    -0.46400
H1245       H  0.71088968  0.33948698  0.68404778     0.07200
C1246       C  0.61150433  0.14340379  0.75489419    -0.06500
Cl1247     Cl  0.66622096  0.22908962  0.79966981    -0.49500
C1248       C  0.58986837  0.16424419  0.94060944     0.43000
H1249       H  0.76121800  0.19758661  0.68122209     0.07200
N1250       N  0.57360538  0.18647641  0.75537411    -0.46200
C1251       C  0.51291309  0.13801172  0.66692818    -0.25900
C1252       C  0.51870253  0.10315184  0.66296501    -0.14000
C1253       C  0.54501571  0.08641779  0.68274395     0.36600
C1254       C  0.56514149  0.10453566  0.70625923    -0.25400
C1255       C  0.55925802  0.13934042  0.71128582    -0.14600
C1256       C  0.53291306  0.15637049  0.69098679     0.37700
N1257       N  0.52630591  0.19199442  0.69506231    -0.88900
H1258       H  0.49226392  0.15063859  0.65208676     0.18800
H1259       H  0.58497769  0.09073530  0.72138153     0.18800
N1260       N  0.55138776  0.05082920  0.67885765    -0.87900
H1261       H  0.50538162  0.20015598  0.67958028     0.36200
H1262       H  0.54825532  0.20700190  0.67709508     0.41300
H1263       H  0.08096872  0.04471156  0.66304691     0.40900
H1264       H  0.54833358  0.03678656  0.71146502     0.35800
C1265       C  0.53084214  0.14884163  0.98658997    -0.25900
C1266       C  0.56714476  0.14594718  0.98202253    -0.14000
C1267       C  0.58059847  0.12497847  0.01662332     0.36600
C1268       C  0.55218389  0.10923355  0.55957041    -0.25400
C1269       C  0.51598287  0.10728014  0.56071967    -0.14600
C1270       C  0.50245602  0.12558537  0.52454963     0.37700
N1271       N  0.96858220  0.13062870  0.52258424    -0.88900
H1272       H  0.52027269  0.16536526  0.96087957     0.18800
H1273       H  0.56307237  0.09551043  0.58703619     0.18800
N1274       N  0.61722207  0.12248094  0.01648197    -0.87900
H1275       H  0.96209538  0.14672652  0.49491294     0.36200
H1276       H  0.95941979  0.14210607  0.55118812     0.41300
H1277       H  0.62898527  0.14739468  0.01042555     0.40900
H1278       H  0.62820159  0.10836949  0.99129900     0.35800
C1279       C  0.72208046  0.07839197  0.62449641    -0.25900
C1280       C  0.75546905  0.08419615  0.59812739    -0.14000
C1281       C  0.77370805  0.11616221  0.59526289     0.36600
C1282       C  0.76027173  0.13985728  0.62354834    -0.25400
C1283       C  0.72860407  0.13228957  0.65399163    -0.14600
C1284       C  0.70784305  0.10272255  0.65139470     0.37700
N1285       N  0.67294151  0.09690028  0.67700520    -0.88900
H1286       H  0.70769908  0.05418428  0.62540121     0.18800
H1287       H  0.77576630  0.16318475  0.62338262     0.18800
N1288       N  0.80697468  0.12368489  0.56619249    -0.87900
H1289       H  0.66165014  0.07371951  0.67163273     0.36200
H1290       H  0.65804981  0.11680008  0.66445131     0.41300
H1291       H  0.82529472  0.12847595  0.58604596     0.40900
H1292       H  0.80528712  0.14647077  0.54394990     0.35800
C1293       C  0.80262059  0.10496970  0.96755178    -0.25900
C1294       C  0.78155957  0.07407026  0.49940973    -0.14000
C1295       C  0.74691289  0.06923366  0.49288723     0.36600
C1296       C  0.73491822  0.09509941  0.95220237    -0.25400
C1297       C  0.75590725  0.12307307  0.92584280    -0.14600
C1298       C  0.79087225  0.12701160  0.93292821     0.37700
N1299       N  0.81529803  0.15290152  0.90612300    -0.88900
H1300       H  0.82871344  0.10911995  0.97393929     0.18800
H1301       H  0.70855262  0.09072626  0.94692047     0.18800
N1302       N  0.72456591  0.04184179  0.52115514    -0.87900
H1303       H  0.80626840  0.17719421  0.91138763     0.36200
H1304       H  0.81758780  0.14995687  0.87213909     0.41300
H1305       H  0.73518255  0.01828591  0.51467194     0.40900
H1306       H  0.69973595  0.04184679  0.51266820     0.37200
C1307       C  0.55994096  0.31579308  0.64937127    -0.25900
C1308       C  0.59590921  0.31365709  0.64800200    -0.14000
C1309       C  0.61943549  0.33253916  0.61139013     0.36600
C1310       C  0.60658237  0.35559203  0.57901665    -0.25400
C1311       C  0.57075375  0.36039438  0.58341325    -0.14600
C1312       C  0.54722545  0.33974147  0.61808287     0.37700
N1313       N  0.51065122  0.34577195  0.62453168    -0.88900
H1314       H  0.54157071  0.30155389  0.67733772     0.18800
H1315       H  0.62472816  0.37209401  0.55295762     0.18800
N1316       N  0.65635011  0.32970698  0.60828203    -0.87900
H1317       H  0.50316403  0.35331033  0.65635410     0.36200
H1318       H  0.49720253  0.32231547  0.62473611     0.41300
H1319       H  0.66733904  0.35429221  0.60861460     0.40900
H1320       H  0.66645213  0.32209397  0.57713175     0.35800
C1321       C  0.55717024  0.32575148  0.96366203    -0.25900
C1322       C  0.58347967  0.33947152  0.92701445    -0.14000
C1323       C  0.59452004  0.37484351  0.92309522     0.36600
C1324       C  0.57926828  0.39508125  0.95587359    -0.25400
C1325       C  0.55418120  0.38072202  0.99354482    -0.14600
C1326       C  0.54305270  0.34565799  0.99701005     0.37700
N1327       N  0.51788745  0.32969539  0.03493991    -0.88900
H1328       H  0.54828117  0.29883062  0.96770045     0.18800
H1329       H  0.58887800  0.41820852  0.45335719     0.18800
N1330       N  0.62146097  0.39014496  0.88641853    -0.87900
H1331       H  0.52894029  0.30813661  0.05078574     0.36200
H1332       H  0.49648670  0.32072755  0.02281951     0.41300
H1333       H  0.64489082  0.37926205  0.89204695     0.40900
H1334       H  0.61328990  0.40742768  0.36975326     0.35800
C1335       C  0.77537729  0.35378251  0.60842465    -0.25900
C1336       C  0.77933721  0.31884973  0.62603977    -0.14000
C1337       C  0.80727668  0.30116249  0.60404231     0.36600
C1338       C  0.82805064  0.31756781  0.56337909    -0.25400
C1339       C  0.82272441  0.35167427  0.54453690    -0.14600
C1340       C  0.79705140  0.37044754  0.56830472     0.37700
N1341       N  0.79300001  0.40624525  0.55175103    -0.88900
H1342       H  0.75499795  0.36815544  0.62555340     0.18800
H1343       H  0.84803444  0.30331205  0.54517352     0.18800
N1344       N  0.81409793  0.26631689  0.62215993    -0.87900
H1345       H  0.77391941  0.41678363  0.57403093     0.36200
H1346       H  0.78379592  0.40735870  0.52149531     0.41300
H1347       H  0.82352305  0.26750697  0.65202801     0.40900
H1348       H  0.83411028  0.25646929  0.60044014     0.35800
C1349       C  0.80891156  0.29173246  0.95191527    -0.25900
C1350       C  0.80468674  0.32527204  0.96224590    -0.14000
C1351       C  0.77451547  0.34272897  0.95506632     0.36600
C1352       C  0.75140082  0.32834874  0.93171220    -0.25400
C1353       C  0.75841048  0.29687386  0.91542629    -0.14600
C1354       C  0.78570423  0.27713418  0.92913388     0.37700
N1355       N  0.79103921  0.24296174  0.91821195    -0.88900
H1356       H  0.83181499  0.27792102  0.95838694     0.18800
H1357       H  0.72965553  0.34322652  0.92338952     0.18800
N1358       N  0.77273410  0.38494683  0.44935679    -0.87900
H1359       H  0.79010460  0.22604369  0.94849108     0.36200
H1360       H  0.81603550  0.24276805  0.89878937     0.41300
H1361       H  0.74840725  0.38921776  0.46817131     0.40900
H1362       H  0.77422437  0.39829743  0.41658293     0.35800
N1363       N  0.83754872  0.86409804  0.99520492    -0.03100
C1364       C  0.83982479  0.84723731  0.45674759    -0.00500
C1365       C  0.86998821  0.85329236  0.42481462    -0.23400
C1366       C  0.89183139  0.87302073  0.44235169    -0.23600
C1367       C  0.86892388  0.88210366  0.98454695    -0.00600
H1368       H  0.87456644  0.84618359  0.39122960     0.13200
H1369       H  0.91664701  0.88512173  0.42458856     0.13200
N1370       N  0.54548964  0.89598648  0.02405138    -0.03100
C1371       C  0.53292694  0.92830648  0.02703062    -0.00500
C1372       C  0.54288975  0.94100941  0.06340048    -0.23400
C1373       C  0.56218161  0.91663343  0.08306701    -0.23600
C1374       C  0.56320209  0.88958395  0.05864185    -0.00600
H1375       H  0.02362997  0.96141834  0.08269796     0.13200
H1376       H  0.57193842  0.91722207  0.11412041     0.13200
N1377       N  0.79086693  0.55876400  0.03459985    -0.03100
C1378       C  0.80817998  0.52884958  0.03563167    -0.00500
C1379       C  0.79658475  0.50727753  0.07629120    -0.23400
C1380       C  0.77256786  0.52485473  0.10183849    -0.23600
C1381       C  0.77013545  0.55649496  0.07585829    -0.00600
H1382       H  0.80775333  0.48325540  0.08831434     0.13200
H1383       H  0.76048784  0.51668062  0.13683957     0.13200
N1384       N  0.94155099  0.93468709  0.50223851    -0.36200
N1385       N  0.97013799  0.99926699  0.01217384    -0.56800
N1386       N  0.90636342  0.53917509  0.01241666    -0.36200
N1387       N  0.87641730  0.97053996  0.50689034    -0.56800
C1388       C  0.97034382  0.92335597  0.51767248     0.27400
C1389       C  0.91667989  0.90892795  0.51593753     0.27400
C1390       C  0.92355020  0.55589789  0.03870832     0.27400
C1391       C  0.87179244  0.54336441  0.02581693     0.27400
C1392       C  0.99869281  0.98120289  0.99993929     0.36000
C1393       C  0.98099130  0.53307223  0.01449385     0.36000
C1394       C  0.86736388  0.94055658  0.49384600     0.36000
C1395       C  0.85042595  0.99757207  0.99231644     0.36000
C1396       C  0.96323803  0.89022482  0.54202210    -0.21500
C1397       C  0.92957091  0.88068153  0.53970713    -0.21500
C1398       C  0.89980922  0.57274576  0.06681854    -0.21500
C1399       C  0.86724683  0.56478176  0.05880994    -0.21500
C1400       C  0.53313151  0.00294777  0.99327049    -0.22600
C1401       C  0.52296367  0.53623161  0.00688230    -0.22600
C1402       C  0.83800899  0.94461675  0.47422220    -0.22600
C1403       C  0.82808279  0.97795876  0.47679271    -0.22600
C1404       C  0.00219347  0.94292201  0.51108888    -0.17900
C1405       C  0.88413128  0.90925934  0.50273189    -0.17900
C1406       C  0.84443259  0.52561867  0.01192811    -0.17900
C1407       C  0.95976060  0.55464877  0.03995427    -0.17900
H1408       H  0.97993066  0.87491370  0.56092749     0.15000
H1409       H  0.91581353  0.85620386  0.55459593     0.15000
H1410       H  0.90522034  0.58813012  0.09184433     0.15000
H1411       H  0.84299844  0.57217219  0.07746912     0.15000
H1412       H  0.56003144  0.99590237  0.98549907     0.13300
H1413       H  0.53951483  0.55768692  0.01039797     0.13300
H1414       H  0.82435134  0.92532947  0.46111329     0.13300
H1415       H  0.80470214  0.98912213  0.46745948     0.13300
H1416       H  0.93983498  0.95745506  0.48010001     0.26500
H1417       H  0.91731024  0.52501055  0.98733797     0.26500
N1418       N  0.99524067  0.58717039  0.08611619    -0.03100
C1419       C  0.50037561  0.58302872  0.13437199    -0.00500
C1420       C  0.97335362  0.55750556  0.15501668    -0.23400
C1421       C  0.95699072  0.54459900  0.12415237    -0.23600
C1422       C  0.97079227  0.56306366  0.08199575    -0.00600
H1423       H  0.96905313  0.54862170  0.19108087     0.13200
H1424       H  0.93741063  0.52352311  0.13148964     0.13200
C1425       C  0.73876361  0.64718045  0.39263036     0.42800
N1426       N  0.70075619  0.66478007  0.35124003     0.01700
C1427       C  0.71877341  0.81332901  0.18814019    -0.06100
H1428       H  0.69485819  0.82820407  0.36561276     0.07200
C1429       C  0.57988871  0.78267243  0.38252364    -0.06500
Co1430     Co  0.72815409  0.72599062  0.28124881     0.74200
N1431       N  0.70710924  0.78920218  0.32259858    -0.25700
Co1432     Co  0.66947170  0.79216316  0.28206030     0.74100
C1433       C  0.59340487  0.81643236  0.38946453     0.43000
N1434       N  0.60004288  0.69492010  0.37262482     0.01400
N1435       N  0.62951427  0.79606674  0.33771953     0.01500
N1436       N  0.75561055  0.76953886  0.18854522    -0.46500
H1437       H  0.77722802  0.69279910  0.35539376     0.07200
N1438       N  0.72946113  0.76407469  0.32230313     0.01700
N1439       N  0.63198108  0.78940293  0.24236009     0.01500
C1440       C  0.60793236  0.79221961  0.18418215     0.43100
N1441       N  0.62301892  0.67042451  0.37299555    -0.25100
C1442       C  0.73716788  0.68219142  0.20073738    -0.06000
N1443       N  0.70665374  0.64028804  0.38380706    -0.46200
N1444       N  0.63439274  0.80534599  0.20045356    -0.46500
C1445       C  0.71737867  0.65279272  0.19065947     0.42900
N1446       N  0.73069762  0.76469763  0.22514241     0.01700
N1447       N  0.61958604  0.66529310  0.27950107    -0.25100
N1448       N  0.72711259  0.68757038  0.33731797    -0.25600
N1449       N  0.59737696  0.69021607  0.27785008     0.01400
H1450       H  0.62543849  0.61852212  0.25006120     0.07300
H1451       H  0.56524222  0.75104128  0.22030749     0.07300
N1452       N  0.70882412  0.78999568  0.22585523    -0.25700
N1453       N  0.60375680  0.77234862  0.35001530    -0.25300
N1454       N  0.69546729  0.66376231  0.25674788     0.01700
C1455       C  0.73675788  0.78904458  0.37821387     0.43100
C1456       C  0.61642859  0.65005737  0.41314986    -0.06500
N1457       N  0.60531157  0.76656087  0.25484297    -0.25300
H1458       H  0.55496688  0.76933266  0.39689728     0.07300
N1459       N  0.74776445  0.76319804  0.35500215    -0.46500
H1460       H  0.62859788  0.62579621  0.42067020     0.07300
C1461       C  0.58227632  0.65568692  0.23506898     0.43000
C1462       C  0.75225475  0.67898108  0.36141158    -0.06000
Co1463     Co  0.65962953  0.66534406  0.31575017     0.73800
N1464       N  0.57751143  0.69232040  0.41126655    -0.46200
C1465       C  0.74999685  0.79969399  0.16306116     0.43200
N1466       N  0.69243484  0.64278325  0.22725151    -0.46200
Co1467     Co  0.60064104  0.73105233  0.31422200     0.73900
C1468       C  0.58790322  0.76727808  0.22058561    -0.06600
C1469       C  0.71027196  0.80673899  0.35630483    -0.06100
N1470       N  0.72141217  0.68721367  0.24226981    -0.25600
N1471       N  0.62425411  0.82288029  0.36019468    -0.46400
H1472       H  0.70652646  0.83757616  0.18039976     0.07200
C1473       C  0.61188851  0.64206599  0.25415425    -0.06500
Cl1474     Cl  0.66448636  0.72866613  0.29856990    -0.49500
C1475       C  0.58661031  0.66495725  0.43896926     0.43000
H1476       H  0.75885983  0.69786845  0.17980487     0.07200
N1477       N  0.57436497  0.68540329  0.25181910    -0.46200
C1478       C  0.51903763  0.63834787  0.15746515    -0.25900
C1479       C  0.52348846  0.60292698  0.15600155    -0.14000
C1480       C  0.54856226  0.58580082  0.17788500     0.36600
C1481       C  0.56785958  0.60376006  0.20240257    -0.25400
C1482       C  0.56257232  0.63884403  0.20595133    -0.14600
C1483       C  0.53842036  0.65662140  0.18225615     0.37700
N1484       N  0.53348066  0.69290319  0.18357587    -0.88900
H1485       H  0.49984613  0.65147701  0.14018563     0.18800
H1486       H  0.58643872  0.58959377  0.21961160     0.18800
N1487       N  0.55456336  0.54998929  0.17511136    -0.87900
H1488       H  0.51420792  0.70171095  0.16533334     0.36200
H1489       H  0.55671802  0.70637887  0.16697391     0.41300
H1490       H  0.07594449  0.54626693  0.15899082     0.40900
H1491       H  0.55013390  0.53627070  0.20799017     0.35800
C1492       C  0.52719522  0.64914095  0.48372787    -0.25900
C1493       C  0.56353005  0.64736808  0.48038487    -0.14000
C1494       C  0.57687801  0.62829897  0.51640870     0.36600
C1495       C  0.55633636  0.61172356  0.05206151    -0.25400
C1496       C  0.52008668  0.61112885  0.05428843    -0.14600
C1497       C  0.50614271  0.63155402  0.02016727     0.37700
N1498       N  0.96927714  0.63451006  0.01904022    -0.88900
H1499       H  0.51670272  0.66451348  0.45697287     0.18800
H1500       H  0.56735259  0.59657692  0.07843823     0.18800
N1501       N  0.61331224  0.62866660  0.51837477    -0.87900
H1502       H  0.96434929  0.65167070  0.99128727     0.36200
H1503       H  0.96036635  0.64590643  0.04777685     0.41300
H1504       H  0.62298017  0.65437783  0.51296863     0.40900
H1505       H  0.62659573  0.61549059  0.49353200     0.35800
C1506       C  0.71951262  0.57872628  0.12274857    -0.25900
C1507       C  0.75207700  0.58562939  0.09438173    -0.14000
C1508       C  0.76956835  0.61806775  0.09117088     0.36600
C1509       C  0.75639335  0.64113224  0.12060086    -0.25400
C1510       C  0.72596102  0.63232818  0.15307300    -0.14600
C1511       C  0.70585195  0.60199661  0.15163159     0.37700
N1512       N  0.67242139  0.59409005  0.18067961    -0.88900
H1513       H  0.70555462  0.55421498  0.12402259     0.18800
H1514       H  0.77133346  0.66494616  0.11974974     0.18800
N1515       N  0.80200663  0.62671395  0.06060647    -0.87900
H1516       H  0.66177426  0.57029405  0.17631568     0.36200
H1517       H  0.65559358  0.61296043  0.17043006     0.41300
H1518       H  0.82099374  0.63169011  0.07941321     0.40900
H1519       H  0.79912372  0.64960730  0.03917619     0.35800
C1520       C  0.80369044  0.60367432  0.46406854    -0.25900
C1521       C  0.78102673  0.57783430  0.99462511    -0.14000
C1522       C  0.74666967  0.57378670  0.98692470     0.36600
C1523       C  0.73479853  0.59554823  0.45229029    -0.25400
C1524       C  0.75560728  0.62350389  0.42556936    -0.14600
C1525       C  0.79102628  0.62683144  0.43119116     0.37700
N1526       N  0.81498345  0.65328003  0.40465435    -0.88900
H1527       H  0.83020922  0.60730048  0.46922992     0.18800
H1528       H  0.70796212  0.59186035  0.44844934     0.18800
N1529       N  0.72322998  0.54701485  0.01465376    -0.87900
H1530       H  0.80598907  0.67738715  0.41118891     0.36200
H1531       H  0.81662629  0.65112547  0.37050048     0.41300
H1532       H  0.73331759  0.52314345  0.00856193     0.40900
H1533       H  0.69870807  0.54770573  0.00530576     0.37200
C1534       C  0.56134647  0.81008922  0.14188315    -0.25900
C1535       C  0.59702778  0.80833468  0.14259237    -0.14000
C1536       C  0.62144350  0.82692607  0.10682357     0.36600
C1537       C  0.60963106  0.85052561  0.07412469    -0.25400
C1538       C  0.57391725  0.85562480  0.07718137    -0.14600
C1539       C  0.54958019  0.83430796  0.11010385     0.37700
N1540       N  0.51304623  0.84025529  0.11491546    -0.88900
H1541       H  0.54233904  0.79568648  0.16896447     0.18800
H1542       H  0.62838540  0.86724736  0.04914026     0.18800
N1543       N  0.65814666  0.82322275  0.10505351    -0.87900
H1544       H  0.50460515  0.84752514  0.14669432     0.36200
H1545       H  0.49987355  0.81680360  0.11427518     0.41300
H1546       H  0.66961264  0.84753778  0.10566369     0.40900
H1547       H  0.66860468  0.81532699  0.07420269     0.35800
C1548       C  0.54818667  0.82594923  0.45601560    -0.25900
C1549       C  0.57699342  0.83929770  0.42261335    -0.14000
C1550       C  0.58961051  0.87368533  0.42249174     0.36600
C1551       C  0.57384048  0.89300871  0.45617826    -0.25400
C1552       C  0.54612807  0.87884181  0.49069676    -0.14600
C1553       C  0.53332949  0.84488370  0.49013307     0.37700
N1554       N  0.50588875  0.82877429  0.52506009    -0.88900
H1555       H  0.53781295  0.79985454  0.45719372     0.18800
H1556       H  0.59277709  0.91728968  0.95054746     0.18800
N1557       N  0.61863492  0.88888442  0.38877477    -0.87900
H1558       H  0.51484902  0.80563425  0.54008834     0.36200
H1559       H  0.48505963  0.82238521  0.50995644     0.41300
H1560       H  0.64084042  0.87598205  0.39544309     0.40900
H1561       H  0.63305623  0.91109126  0.88777300     0.35800
C1562       C  0.77109698  0.85222453  0.10447609    -0.25900
C1563       C  0.77426788  0.81692259  0.12113272    -0.14000
C1564       C  0.80060208  0.79857788  0.09718809     0.36600
C1565       C  0.82180618  0.81536984  0.05704938    -0.25400
C1566       C  0.81821728  0.85033082  0.03998044    -0.14600
C1567       C  0.79293135  0.86915263  0.06455367     0.37700
N1568       N  0.78934976  0.90524285  0.04920178    -0.88900
H1569       H  0.75142963  0.86682791  0.12254203     0.18800
H1570       H  0.84116454  0.80088681  0.03816173     0.18800
N1571       N  0.80533453  0.76267078  0.11281461    -0.87900
H1572       H  0.77112664  0.91581592  0.07249777     0.36200
H1573       H  0.77905395  0.90707645  0.01965185     0.41300
H1574       H  0.81607753  0.76162167  0.14205228     0.40900
H1575       H  0.82375297  0.75237554  0.08940179     0.35800
C1576       C  0.80030895  0.79747862  0.45605107    -0.25900
C1577       C  0.80780210  0.83323962  0.44645466    -0.14000
C1578       C  0.78872771  0.85463715  0.41920977     0.36600
C1579       C  0.76308852  0.83983172  0.40057365    -0.25400
C1580       C  0.75752223  0.80379593  0.40689161    -0.14600
C1581       C  0.77537067  0.78245882  0.43598624     0.37700
N1582       N  0.76907547  0.74559255  0.44391660    -0.88900
H1583       H  0.81536501  0.78106172  0.47666141     0.18800
H1584       H  0.74968929  0.85647933  0.37804779     0.18800
N1585       N  0.77210910  0.88113290  0.94883068    -0.87900
H1586       H  0.76117078  0.73780223  0.47874179     0.36200
H1587       H  0.79269719  0.73423183  0.43381726     0.41300
H1588       H  0.74734024  0.88173986  0.96869298     0.40900
H1589       H  0.77231988  0.89697811  0.91789360     0.35800
N1590       N  0.84168179  0.86259252  0.49333622    -0.03100
C1591       C  0.83646814  0.84821510  0.95875326    -0.00500
C1592       C  0.86588660  0.85593599  0.92585556    -0.23400
C1593       C  0.88659098  0.87744118  0.94230922    -0.23600
C1594       C  0.87393257  0.87863805  0.48407015    -0.00600
H1595       H  0.87085363  0.84810851  0.89267056     0.13200
H1596       H  0.91069152  0.89072010  0.92393913     0.13200
N1597       N  0.53757048  0.89550092  0.53076696    -0.03100
C1598       C  0.52297486  0.92670012  0.53578757    -0.00500
C1599       C  0.52911060  0.93723965  0.57544582    -0.23400
C1600       C  0.54816776  0.91270855  0.59519214    -0.23600
C1601       C  0.55283123  0.88769347  0.56746515    -0.00600
H1602       H  0.03107868  0.96148905  0.58284408     0.13200
H1603       H  0.55594690  0.91199443  0.62773423     0.13200
N1604       N  0.79318101  0.55722652  0.53046089    -0.03100
C1605       C  0.81087074  0.52756660  0.52998593    -0.00500
C1606       C  0.79931140  0.50485706  0.56974320    -0.23400
C1607       C  0.77533667  0.52159845  0.59650494    -0.23600
C1608       C  0.77275247  0.55375262  0.57195077    -0.00600
H1609       H  0.81083037  0.48077113  0.58071912     0.13200
H1610       H  0.76362192  0.51262183  0.63145447     0.13200
N1611       N  0.93713573  0.93686547  0.00079654    -0.36200
N1612       N  0.97406212  0.99794377  0.51295781    -0.56800
N1613       N  0.90905850  0.53897713  0.51225853    -0.36200
N1614       N  0.87289744  0.97394322  0.00513182    -0.56800
C1615       C  0.96582988  0.92542239  0.01636013     0.27400
C1616       C  0.91153218  0.91201928  0.01659207     0.27400
C1617       C  0.92500259  0.55454794  0.54084836     0.27400
C1618       C  0.87419744  0.54236607  0.52444921     0.27400
C1619       C  0.00275624  0.97969291  0.50233223     0.36000
C1620       C  0.98313760  0.53210269  0.51884650     0.36000
C1621       C  0.86391946  0.94424974  0.99155895     0.36000
C1622       C  0.85246911  0.99343221  0.49643055     0.36000
C1623       C  0.95795624  0.89326806  0.04307446    -0.21500
C1624       C  0.92390311  0.88419978  0.04180036    -0.21500
C1625       C  0.90014856  0.56980042  0.56951652    -0.21500
C1626       C  0.86823518  0.56185243  0.55949109    -0.21500
C1627       C  0.52669824  0.00099727  0.50489164    -0.22600
C1628       C  0.51817737  0.53652103  0.50540171    -0.22600
C1629       C  0.83640220  0.94924028  0.96847495    -0.22600
C1630       C  0.82721622  0.98296437  0.97003753    -0.22600
C1631       C  0.99811346  0.94439856  0.00828371    -0.17900
C1632       C  0.87895494  0.91251599  0.00339283    -0.17900
C1633       C  0.84773457  0.52559367  0.50746345    -0.17900
C1634       C  0.96108458  0.55373458  0.54337921    -0.17900
H1635       H  0.97465535  0.87818103  0.06237062     0.15000
H1636       H  0.90962235  0.86030331  0.05812312     0.15000
H1637       H  0.90431648  0.58392861  0.59631998     0.15000
H1638       H  0.84345013  0.56769650  0.57830320     0.15000
H1639       H  0.55335056  0.99291799  0.49933713     0.13300
H1640       H  0.53486970  0.55830124  0.50737269     0.13300
H1641       H  0.82321096  0.93019515  0.95416836     0.13300
H1642       H  0.80483476  0.99485024  0.95865503     0.13300
H1643       H  0.93589735  0.95906269  0.97746926     0.26500
H1644       H  0.92110041  0.52620310  0.48618803     0.26500
N1645       N  0.99636543  0.58745949  0.58888276    -0.03100
C1646       C  0.49697539  0.58248579  0.63481011    -0.00500
C1647       C  0.97485572  0.55783643  0.65801721    -0.23400
C1648       C  0.95805339  0.54501834  0.62754728    -0.23600
C1649       C  0.97157630  0.56338403  0.58526406    -0.00600
H1650       H  0.97087213  0.54886733  0.69405217     0.13200
H1651       H  0.93857741  0.52383539  0.63518138     0.13200
C1652       C  0.74163051  0.64501811  0.88952830     0.42800
N1653       N  0.70365642  0.66244604  0.84812674     0.01700
C1654       C  0.72245218  0.80956587  0.68368373    -0.06100
H1655       H  0.70028765  0.82527077  0.86013733     0.07200
C1656       C  0.58614780  0.77980990  0.88053854    -0.06500
Co1657     Co  0.73174795  0.72261481  0.77695586     0.74200
N1658       N  0.71194298  0.78633819  0.81703885    -0.25700
Co1659     Co  0.67365231  0.78893279  0.77728544     0.74100
C1660       C  0.60076647  0.81311192  0.88749008     0.43000
N1661       N  0.60304202  0.69270119  0.86940345     0.01400
N1662       N  0.63466280  0.79317703  0.83346879     0.01500
N1663       N  0.76008235  0.76636907  0.68455422    -0.46500
H1664       H  0.78096296  0.68934461  0.85076718     0.07200
N1665       N  0.73422386  0.76119299  0.81634773     0.01700
N1666       N  0.63545193  0.78630138  0.73829275     0.01500
C1667       C  0.60942302  0.78983461  0.68159031     0.43100
N1668       N  0.62550403  0.66775335  0.87022257    -0.25100
C1669       C  0.74053030  0.67803981  0.69863791    -0.06000
N1670       N  0.70933806  0.63836681  0.88119131    -0.46200
N1671       N  0.63667692  0.80269525  0.69675701    -0.46500
C1672       C  0.72085804  0.64856938  0.68896361     0.42900
N1673       N  0.73448734  0.76088653  0.72041061     0.01700
N1674       N  0.62201047  0.66208916  0.77659415    -0.25100
N1675       N  0.73037821  0.68479159  0.83352376    -0.25600
N1676       N  0.60003679  0.68726629  0.77503861     0.01400
H1677       H  0.62690368  0.61509721  0.74710299     0.07300
H1678       H  0.56746666  0.74831951  0.71909535     0.07300
N1679       N  0.71234120  0.78596253  0.72090352    -0.25700
N1680       N  0.60868077  0.76975301  0.84646315    -0.25300
N1681       N  0.69825676  0.66023032  0.75422332     0.01700
C1682       C  0.74301302  0.78645418  0.87126480     0.43100
C1683       C  0.61790356  0.64734277  0.91037903    -0.06500
N1684       N  0.60883214  0.76350673  0.75152340    -0.25300
H1685       H  0.56145719  0.76651104  0.89623980     0.07300
N1686       N  0.75335969  0.76052025  0.84802462    -0.46500
H1687       H  0.62935092  0.62273591  0.91843379     0.07300
C1688       C  0.58386873  0.65264261  0.73289720     0.43000
C1689       C  0.75561791  0.67615080  0.85745998    -0.06000
Co1690     Co  0.66232228  0.66235561  0.81292547     0.73800
N1691       N  0.58004779  0.69057830  0.90756186    -0.46200
C1692       C  0.75438804  0.79667565  0.65943443     0.43200
N1693       N  0.69553631  0.63877754  0.72521143    -0.46200
Co1694     Co  0.60425240  0.72842628  0.81094353     0.73900
C1695       C  0.59049016  0.76438655  0.71826056    -0.06600
C1696       C  0.71591118  0.80410316  0.85032378    -0.06100
N1697       N  0.72433872  0.68351554  0.73957191    -0.25600
N1698       N  0.63082587  0.81957121  0.85678513    -0.46400
H1699       H  0.71054590  0.83411676  0.67675956     0.07200
C1700       C  0.61365533  0.63877515  0.75155439    -0.06500
Cl1701     Cl  0.66800030  0.72557936  0.79475266    -0.49500
C1702       C  0.58822342  0.66301308  0.93555309     0.43000
H1703       H  0.76244083  0.69353337  0.67793372     0.07200
N1704       N  0.57660981  0.68254415  0.74951625    -0.46200
C1705       C  0.52029604  0.63740973  0.65466802    -0.25900
C1706       C  0.52137789  0.60134745  0.65610705    -0.14000
C1707       C  0.54473090  0.58288377  0.67985813     0.36600
C1708       C  0.56539006  0.60023194  0.70360503    -0.25400
C1709       C  0.56322432  0.63605015  0.70438222    -0.14600
C1710       C  0.54118179  0.65506206  0.67839665     0.37700
N1711       N  0.54014232  0.69209091  0.67602265    -0.88900
H1712       H  0.50267451  0.65165389  0.63573036     0.18800
H1713       H  0.58255723  0.58521114  0.72241155     0.18800
N1714       N  0.54767314  0.54635607  0.67962517    -0.87900
H1715       H  0.52249750  0.70203001  0.65580641     0.36200
H1716       H  0.56478558  0.70269600  0.65977981     0.41300
H1717       H  0.07490778  0.54282950  0.66612933     0.40900
H1718       H  0.54209829  0.53384645  0.71310900     0.35800
C1719       C  0.52891678  0.64915906  0.98201198    -0.25900
C1720       C  0.56530297  0.64718805  0.97807835    -0.14000
C1721       C  0.57896850  0.62978838  0.01482692     0.36600
C1722       C  0.55396762  0.60917486  0.55248105    -0.25400
C1723       C  0.51778416  0.60920307  0.55442777    -0.14600
C1724       C  0.50416667  0.63047838  0.52072701     0.37700
N1725       N  0.96737032  0.63416604  0.52432649    -0.88900
H1726       H  0.51821035  0.66363564  0.95477908     0.18800
H1727       H  0.56464570  0.59314746  0.57848304     0.18800
N1728       N  0.61552682  0.63061813  0.01604865    -0.87900
H1729       H  0.96110496  0.65073844  0.49693392     0.36200
H1730       H  0.95951099  0.64598401  0.55301026     0.41300
H1731       H  0.62508735  0.65640022  0.00906999     0.40900
H1732       H  0.62855831  0.61676819  0.99177932     0.35800
C1733       C  0.72247616  0.57590910  0.61933969    -0.25900
C1734       C  0.75550476  0.58244857  0.59207281    -0.14000
C1735       C  0.77391307  0.61412180  0.59058981     0.36600
C1736       C  0.76081670  0.63683732  0.62030211    -0.25400
C1737       C  0.72962453  0.62845647  0.65137321    -0.14600
C1738       C  0.70887367  0.59901556  0.64843708     0.37700
N1739       N  0.67472676  0.59199894  0.67592817    -0.88900
H1740       H  0.70795776  0.55196911  0.61927623     0.18800
H1741       H  0.77636612  0.66000084  0.62069774     0.18800
N1742       N  0.80706897  0.62232424  0.56146941    -0.87900
H1743       H  0.66349303  0.56887215  0.67030923     0.36200
H1744       H  0.65894471  0.61179589  0.66533684     0.41300
H1745       H  0.82551161  0.62634578  0.58148437     0.40900
H1746       H  0.80528252  0.64570241  0.54041180     0.35800
C1747       C  0.80405917  0.60258215  0.96536336    -0.25900
C1748       C  0.78215369  0.57694190  0.49164554    -0.14000
C1749       C  0.74772934  0.57210110  0.48435939     0.36600
C1750       C  0.73524070  0.59618814  0.95267866    -0.25400
C1751       C  0.75740870  0.62234163  0.92431875    -0.14600
C1752       C  0.79277432  0.62483708  0.93039365     0.37700
N1753       N  0.81793024  0.64949580  0.90231313    -0.88900
H1754       H  0.83060479  0.60543936  0.97079060     0.18800
H1755       H  0.70840973  0.59313299  0.94851730     0.18800
N1756       N  0.72577204  0.54349348  0.51038754    -0.87900
H1757       H  0.81003296  0.67436218  0.90664673     0.36200
H1758       H  0.81941908  0.64589319  0.86864314     0.41300
H1759       H  0.73701966  0.52063838  0.50198783     0.40900
H1760       H  0.70108670  0.54360770  0.50149312     0.37200
C1761       C  0.55967361  0.80654916  0.64431809    -0.25900
C1762       C  0.59583346  0.80732183  0.64255456    -0.14000
C1763       C  0.61781519  0.82890752  0.60695510     0.36600
C1764       C  0.60301899  0.85226788  0.57691603    -0.25400
C1765       C  0.56677254  0.85446146  0.58264190    -0.14600
C1766       C  0.54494977  0.83066093  0.61545044     0.37700
N1767       N  0.50783604  0.83360552  0.62294261    -0.88900
H1768       H  0.54238210  0.78992760  0.67113942     0.18800
H1769       H  0.61979547  0.87102479  0.55212870     0.18800
N1770       N  0.65499310  0.82853993  0.60279740    -0.87900
H1771       H  0.49969277  0.83883866  0.65586269     0.36200
H1772       H  0.49639262  0.80957720  0.62093582     0.41300
H1773       H  0.66428450  0.85339866  0.60509489     0.40900
H1774       H  0.66544960  0.82297968  0.57061242     0.35800
C1775       C  0.55548055  0.82443697  0.95274967    -0.25900
C1776       C  0.58474364  0.83679638  0.91960473    -0.14000
C1777       C  0.59784526  0.87117943  0.91832296     0.36600
C1778       C  0.58168630  0.89168187  0.95028257    -0.25400
C1779       C  0.55342151  0.87857358  0.98461633    -0.14600
C1780       C  0.54024683  0.84453797  0.98525233     0.37700
N1781       N  0.51193420  0.82955680  0.01967052    -0.88900
H1782       H  0.54486700  0.79830609  0.95488841     0.18800
H1783       H  0.58462888  0.91858286  0.45726595     0.18800
N1784       N  0.62791071  0.88509169  0.88546111    -0.87900
H1785       H  0.52015349  0.80661142  0.03625232     0.36200
H1786       H  0.49155937  0.82293105  0.00392859     0.41300
H1787       H  0.64942889  0.87173886  0.89384697     0.40900
H1788       H  0.62328304  0.91480977  0.39191844     0.35800
C1789       C  0.76788810  0.84503406  0.59373334    -0.25900
C1790       C  0.77869625  0.81501890  0.61843285    -0.14000
C1791       C  0.81204002  0.80281951  0.60274859     0.36600
C1792       C  0.83309020  0.82045412  0.56294835    -0.25400
C1793       C  0.82170344  0.84968101  0.53774961    -0.14600
C1794       C  0.78868338  0.86204582  0.55332454     0.37700
N1795       N  0.77595876  0.89135392  0.52771362    -0.88900
H1796       H  0.74244050  0.85465173  0.60485637     0.18800
H1797       H  0.85816326  0.81060163  0.55027592     0.18800
N1798       N  0.82425635  0.77216104  0.62641490    -0.87900
H1799       H  0.75225158  0.89856804  0.54514756     0.36200
H1800       H  0.77045991  0.88334655  0.49837858     0.41300
H1801       H  0.82871530  0.77804332  0.65741758     0.40900
H1802       H  0.84831441  0.76569887  0.60900334     0.35800
C1803       C  0.81097312  0.79461070  0.94307447    -0.25900
C1804       C  0.80644011  0.82870901  0.95109632    -0.14000
C1805       C  0.77721644  0.84629371  0.94043645     0.36600
C1806       C  0.75460960  0.83067460  0.91782859    -0.25400
C1807       C  0.76140848  0.79808490  0.90488459    -0.14600
C1808       C  0.78844177  0.77892487  0.92037154     0.37700
N1809       N  0.79408704  0.74421317  0.91152955    -0.88900
H1810       H  0.83348999  0.78105070  0.95159116     0.18800
H1811       H  0.73340098  0.84541075  0.90748779     0.18800
N1812       N  0.79694885  0.89116724  0.40794202    -0.87900
H1813       H  0.79267114  0.72810113  0.94255710     0.36200
H1814       H  0.81932363  0.74356675  0.89297734     0.41300
H1815       H  0.77425753  0.90420526  0.41756954     0.40900
H1816       H  0.80435536  0.89715179  0.37281017     0.35800
loop_ 
_geom_bond_atom_site_label_1 
_geom_bond_atom_site_label_2 
_geom_bond_distance 
_geom_bond_site_symmetry_2 
_ccdc_geom_bond_type 
N1            C5   1.363       .  A
N1          C229   1.353       .  A
N1          C204   1.451   1_556  S
C2          N228   1.353       .  A
C2            C3   1.376       .  A
C2          C215   1.462       .  S
C3            C4   1.362       .  A
C3            H6   1.082       .  S
C4          C232   1.383       .  A
C4            H7   1.083       .  S
C5          C231   1.385       .  A
C5          C270   1.476       .  S
N8           C12   1.355       .  A
N8            C9   1.364       .  A
N8          C417   1.451   1_554  S
C9           C10   1.388       .  A
C9         C1177   1.491       .  S
C10          C11   1.360       .  A
C10         H921   1.083       .  S
C11          C12   1.376       .  A
C11          H14   1.083       .  S
C12         C176   1.459       .  S
H13         C918   1.083       .  S
N15          C19   1.355       .  A
N15          C16   1.359       .  A
N15         C159   1.446   1_554  S
C16          C17   1.386       .  A
C16          C44   1.487       .  S
C17          C18   1.369       .  A
C17          H20   1.083   1_545  S
C18          C19   1.379       .  A
C18          H21   1.082       .  S
C19         C145   1.477       .  S
N22          C27   1.350       .  A
N22          C26   1.351       .  A
N22          H54   1.043       .  S
N23          C30   1.352       .  A
N23         C485   1.350       .  A
N24          C29   1.358       .  A
N24          C28   1.357       .  A
N24          H55   1.042   1_554  S
N25          C32   1.349       .  A
N25         C260   1.351       .  A
C26          C34   1.386       .  A
C26          C42   1.414       .  A
C27          C43   1.401       .  A
C27          C35   1.381       .  A
C28          C36   1.387       .  A
C28          C45   1.420       .  A
C29          C44   1.421       .  A
C29          C37   1.386       .  A
C30         C269   1.418       .  A
C30         C946   1.387   1_554  A
C31         N477   1.350   1_545  A
C31          C45   1.408       .  A
C31         C947   1.384       .  A
C32          C40   1.385       .  A
C32          C43   1.410       .  A
C33         N252   1.351       .  A
C33         C268   1.384       .  A
C33         C498   1.400   1_556  A
C34          C35   1.378       .  A
C34          H46   1.076       .  S
C35          H47   1.083       .  S
C36          C37   1.374       .  A
C36          H48   1.082       .  S
C37          H49   1.079       .  S
C38         C938   1.388   1_455  A
C38         C493   1.376   1_556  A
C38          H50   1.083       .  S
C39         C939   1.384   1_455  A
C39         C492   1.376   1_554  A
C39          H51   1.076       .  S
C40          C41   1.374       .  A
C40          H52   1.078       .  S
C41         C260   1.384       .  A
C41          H53   1.083       .  S
C42         C257   1.419       .  A
C42        C1144   1.495       .  S
C43         C232   1.473       .  S
C44         C487   1.402   1_544  A
C45          C60   1.496       .  S
N56          C60   1.361       .  A
N56         C965   1.361       .  A
N56        C1042   1.438       .  S
C57         N964   1.362       .  A
C57         C966   1.379       .  A
C57         C117   1.484   1_655  S
C58          C59   1.373       .  A
C58         C965   1.381       .  A
C58          H61   1.082       .  S
C59          C60   1.383       .  A
C59          H62   1.082       .  S
C63          N81   1.357       .  A
C63         C100   1.472       .  S
C63         C162   1.507       .  S
N64          N81   1.326       .  A
N64          N86   1.315       .  A
N64        Co101   2.086       .  S
C65          N90   1.350       .  A
C65         C103   1.472       .  S
C65         H110   1.081       .  S
H66         C107   1.081       .  S
C67          N91   1.344       .  A
C67          C71   1.465       .  S
C67          H96   1.081       .  S
Co68         N86   2.086       .  S
Co68         N76   2.094       .  S
Co68        N108   2.096       .  S
Co68         N84   2.085       .  S
Co68       Cl112   2.450       .  S
N69         C107   1.339       .  A
N69          N76   1.323       .  A
N69         Co70   2.077       .  S
Co70         N73   2.104       .  S
Co70         N90   2.104       .  S
Co70         N77   2.069       .  S
Co70       Cl112   2.455       .  S
C71         N109   1.354       .  A
C71         C187   1.500       .  S
N72          N79   1.322       .  A
N72         N102   1.327       .  A
N72        Co105   2.102       .  S
N73          N91   1.318       .  A
N73         N109   1.329       .  A
N74         C103   1.352       .  A
N74          N84   1.326       .  A
H75         C100   1.078       .  S
N76          N97   1.321       .  A
N77          N95   1.322       .  A
N77          N82   1.320       .  A
C78          N82   1.346       .  A
C78         C106   1.459       .  S
C78         C173   1.459       .  S
N79          C94   1.337       .  A
N79        Co101   2.089       .  S
C80         N108   1.344       .  A
C80          C83   1.470       .  S
C80         H114   1.081       .  S
C83         N104   1.346       .  A
C83         C148   1.483       .  S
N84          N90   1.316       .  A
N85         C111   1.338       .  A
N85          N87   1.315       .  A
N85        Co101   2.074       .  S
N86         C100   1.343       .  A
N87         N115   1.329       .  A
N87        Co105   2.091       .  S
H88         C111   1.080       .  S
H89         C106   1.081       .  S
N91        Co105   2.086       .  S
N92         N104   1.320       .  A
N92         N108   1.321       .  A
N92        Co101   2.080       .  S
C93          N97   1.350       .  A
C93         C107   1.459       .  S
C93         C218   1.474       .  S
C94         C113   1.463       .  S
C94          H98   1.080       .  S
N95         C106   1.339       .  A
N95        Co105   2.089       .  S
C99         N115   1.354       .  A
C99         C111   1.459       .  S
C99         C120   1.491       .  S
Co101      Cl112   2.446       .  S
N102        C113   1.355       .  A
C103        C201   1.506       .  S
Co105      Cl112   2.461       .  S
C113        C131   1.485       .  S
C116        C117   1.402       .  A
C116        C121   1.413       .  A
C116        H123   1.084   1_455  S
C117        C118   1.406       .  A
C118        C119   1.401       .  A
C118        N125   1.433       .  S
C119        C120   1.406       .  A
C119        H124   1.082       .  S
C120        C121   1.417       .  A
C121        N122   1.437       .  S
N122        H126   1.046       .  S
N122        H127   1.045       .  S
N125        H129   1.045       .  S
N125       H1036   1.046       .  S
H128       N1033   1.046       .  S
C130        C131   1.406       .  A
C130        C362   1.409       .  A
C130        H137   1.083       .  S
C131        C132   1.416       .  A
C132        C360   1.397       .  A
C132        N139   1.433       .  S
C133        C134   1.404       .  A
C133        C359   1.395       .  A
C133        H138   1.082       .  S
C134        N964   1.443   1_455  S
C134        C135   1.409       .  A
C135        C357   1.408   1_554  A
C135       N1044   1.436   1_455  S
N136       C1043   1.436       .  S
N136        H140   1.045       .  S
N136        H141   1.046       .  S
N139        H142   1.044       .  S
N139        H143   1.043       .  S
C144        C145   1.399       .  A
C144        C149   1.404       .  A
C144        H151   1.084       .  S
C145        C146   1.409       .  A
C146        C147   1.400       .  A
C146        N153   1.431       .  S
C147        C148   1.402       .  A
C147        H152   1.082       .  S
C148        C149   1.418       .  A
C149        N150   1.438       .  S
N150        H154   1.046       .  S
N150        H155   1.045       .  S
N153        H156   1.046       .  S
N153        H157   1.045       .  S
C158        C163   1.406       .  A
C158        C386   1.396       .  A
C158        H165   1.083       .  S
C159        C160   1.411       .  A
C159        C385   1.397       .  A
C160        C388   1.407       .  A
C160        N167   1.438   1_556  S
C161        C162   1.407       .  A
C161        C387   1.406       .  A
C161        H166   1.083       .  S
C162        C163   1.426       .  A
C163        N164   1.425       .  S
N164        H168   1.040       .  S
N164        H169   1.045       .  S
N167        H170   1.045   1_554  S
N167        H171   1.046   1_554  S
C172        C173   1.397       .  A
C172        C177   1.392       .  A
C172        H179   1.084       .  S
C173        C174   1.409       .  A
C174        C175   1.401       .  A
C174        N181   1.433       .  S
C175        C176   1.397       .  A
C175        H180   1.084       .  S
C176        C177   1.408       .  A
C177        N178   1.433       .  S
N178        H182   1.046       .  S
N178        H183   1.045   1_455  S
N181        H184   1.046       .  S
N181        H185   1.046       .  S
C186        C187   1.404       .  A
C186        C191   1.406       .  A
C186        H193   1.083       .  S
C187        C188   1.418       .  A
C188        C189   1.415       .  A
C188        N195   1.437       .  S
C189        C190   1.404       .  A
C189        H421   1.083       .  S
C190        N235   1.452       .  S
C190        C191   1.412       .  A
C191        N192   1.429       .  S
N192        H196   1.046       .  S
N192        H197   1.045   1_455  S
H194        C416   1.083       .  S
N195        H198   1.045       .  S
N195        H426   1.045       .  S
H199        N422   1.046       .  S
C200        C201   1.411       .  A
C200        C205   1.418       .  A
C200        H207   1.082       .  S
C201        C202   1.419       .  A
C202        C203   1.408       .  A
C202        N209   1.438       .  S
C203        C204   1.404       .  A
C203        H208   1.084       .  S
C204        C205   1.409       .  A
C205        N206   1.434       .  S
N206        H210   1.045       .  S
N206        H211   1.044       .  S
N209        H212   1.045       .  S
N209        H213   1.046       .  S
C214        C215   1.394       .  A
C214        C219   1.396       .  A
C214        H221   1.084       .  S
C215        C216   1.406       .  A
C216        C217   1.400       .  A
C216        N450   1.430       .  S
C217        C218   1.403       .  A
C217        H222   1.083       .  S
C218        C219   1.409       .  A
C219        N220   1.428       .  S
N220        H224   1.046       .  S
N220        H225   1.045       .  S
N223        C443   1.431       .  S
N223        H226   1.045       .  S
N223        H227   1.046       .  S
N228        C232   1.363       .  A
N228        C431   1.451       .  S
C229        C230   1.376       .  A
C229        C442   1.461       .  S
C230        C231   1.364       .  A
C230        H233   1.082       .  S
C231        H234   1.083       .  S
N235        C239   1.355       .  A
N235        C236   1.367       .  A
C236        C237   1.388       .  A
C236        C950   1.492       .  S
C237        C238   1.361       .  A
C237       H1148   1.083       .  S
C238        C239   1.375       .  A
C238        H241   1.083       .  S
C239        C403   1.460       .  S
H240       C1145   1.083       .  S
N242        C246   1.354       .  A
N242        C243   1.359       .  A
N242        C386   1.445       .  S
C243        C244   1.385       .  A
C243        C271   1.487       .  S
C244        C245   1.367       .  A
C244        H247   1.083   1_545  S
C245        C246   1.379       .  A
C245        H248   1.082       .  S
C246        C372   1.473       .  S
N249        C254   1.350   1_556  A
N249        C253   1.351   1_556  A
N249        H281   1.043       .  S
N250        C257   1.352       .  A
N250        C712   1.349       .  A
N251        C256   1.359       .  A
N251        C255   1.358       .  A
N251        H282   1.041       .  S
N252        C259   1.349       .  A
C253        C261   1.388       .  A
C253        C269   1.415       .  A
C254        C270   1.403   1_554  A
C254        C262   1.381       .  A
C255        C263   1.389       .  A
C255        C272   1.424       .  A
C256        C271   1.422       .  A
C256        C264   1.386       .  A
C257       C1173   1.387       .  A
C258        N704   1.350   1_545  A
C258        C272   1.412       .  A
C258       C1174   1.385       .  A
C259        C267   1.385       .  A
C259        C270   1.410       .  A
C260        C725   1.401       .  A
C261        C262   1.379       .  A
C261        H273   1.077       .  S
C262        H274   1.083       .  S
C263        C264   1.376       .  A
C263        H275   1.082       .  S
C264        H276   1.080       .  S
C265       C1165   1.386       .  A
C265        C720   1.374       .  A
C265        H277   1.083       .  S
C266       C1166   1.384   1_455  A
C266        C719   1.374       .  A
C266        H278   1.077       .  S
C267        C268   1.373       .  A
C267        H279   1.078       .  S
C268        H280   1.083       .  S
C269        C917   1.492       .  S
C271        C714   1.401       .  A
C272        C287   1.497       .  S
N283        C287   1.365       .  A
N283       C1192   1.362       .  A
N283       C1269   1.446       .  S
C284       N1191   1.365   1_455  A
C284       C1193   1.380   1_455  A
C284        C344   1.488       .  S
C285       C1192   1.379       .  A
C285        C286   1.371       .  A
C285        H288   1.082       .  S
C286        C287   1.384       .  A
C286        H289   1.082       .  S
C290        N308   1.358       .  A
C290        C327   1.474       .  S
C290        C389   1.512       .  S
N291        N308   1.327       .  A
N291        N313   1.315       .  A
N291       Co328   2.094       .  S
C292        N317   1.348       .  A
C292        C330   1.469       .  S
C292        H337   1.081       .  S
H293        C334   1.081       .  S
C294        N318   1.345       .  A
C294        C298   1.466       .  S
C294        H323   1.082       .  S
Co295       N313   2.095       .  S
Co295       N303   2.081       .  S
Co295       N335   2.085       .  S
Co295       N311   2.094       .  S
Co295      Cl339   2.450       .  S
N296        C334   1.341       .  A
N296        N303   1.323       .  A
N296       Co297   2.081       .  S
Co297       N300   2.094       .  S
Co297       N317   2.095       .  S
Co297       N304   2.073       .  S
Co297      Cl339   2.454       .  S
C298        N336   1.352       .  A
C298        C414   1.495       .  S
N299        N306   1.322       .  A
N299        N329   1.325       .  A
N299       Co332   2.096       .  S
N300        N318   1.318       .  A
N300        N336   1.327       .  A
N301        C330   1.354       .  A
N301        N311   1.328       .  A
H302        C327   1.077       .  S
N303        N324   1.318       .  A
N304        N322   1.322       .  A
N304        N309   1.320       .  A
C305        N309   1.347       .  A
C305        C333   1.457       .  S
C305        C400   1.462       .  S
N306        C321   1.338       .  A
N306       Co328   2.088       .  S
C307        N335   1.342       .  A
C307        C310   1.463       .  S
C307        H341   1.081       .  S
C310        N331   1.345       .  A
C310        C375   1.475       .  S
N311        N317   1.316       .  A
N312        C338   1.342       .  A
N312        N314   1.316       .  A
N312       Co328   2.085       .  S
N313        C327   1.345       .  A
N314        N342   1.329       .  A
N314       Co332   2.091       .  S
H315        C338   1.081       .  S
H316        C333   1.080       .  S
N318       Co332   2.088       .  S
N319        N331   1.320       .  A
N319        N335   1.322       .  A
N319       Co328   2.079       .  S
C320        N324   1.347       .  A
C320        C334   1.462       .  S
C320        C445   1.469       .  S
C321        C340   1.464       .  S
C321        H325   1.080       .  S
N322        C333   1.338       .  A
N322       Co332   2.082       .  S
C326        N342   1.353       .  A
C326        C338   1.463       .  S
C326        C347   1.495       .  S
Co328      Cl339   2.451       .  S
N329        C340   1.353       .  A
C330        C428   1.507       .  S
Co332      Cl339   2.456       .  S
C340        C358   1.481       .  S
C343        C344   1.402       .  A
C343        C348   1.415       .  A
C343        H350   1.084       .  S
C344        C345   1.408       .  A
C345        C346   1.403       .  A
C345        N352   1.433       .  S
C346        C347   1.405       .  A
C346        H351   1.082       .  S
C347        C348   1.419       .  A
C348        N349   1.437       .  S
N349        H353   1.046       .  S
N349        H354   1.045       .  S
N352       H1263   1.046       .  S
N352        H356   1.045       .  S
H355       N1260   1.046       .  S
C357        C358   1.406       .  A
C357        H364   1.083       .  S
C358        C359   1.414   1_556  A
C359        N366   1.433       .  S
C360        C361   1.403       .  A
C360        H365   1.082       .  S
C361       N1191   1.445   1_455  S
C361        C362   1.410       .  A
C362       N1271   1.436   1_455  S
N363       C1270   1.435       .  S
N363        H367   1.046       .  S
N363        H368   1.045       .  S
N366        H369   1.045       .  S
N366        H370   1.042   1_554  S
C371        C372   1.400       .  A
C371        C376   1.402       .  A
C371        H378   1.084       .  S
C372        C373   1.409       .  A
C373        C374   1.399       .  A
C373        N380   1.431       .  S
C374        C375   1.400       .  A
C374        H379   1.083       .  S
C375        C376   1.415       .  A
C376        N377   1.438       .  S
N377        H381   1.046       .  S
N377        H382   1.046       .  S
N380        H383   1.045       .  S
N380        H384   1.046       .  S
C385        C390   1.409       .  A
C385        H392   1.083       .  S
C386        C387   1.412       .  A
C387        N394   1.438       .  S
C388        C389   1.408       .  A
C388        H393   1.083       .  S
C389        C390   1.429       .  A
C390        N391   1.427       .  S
N391        H395   1.043       .  S
N391        H396   1.045       .  S
N394        H397   1.044       .  S
N394        H398   1.046       .  S
C399        C400   1.398       .  A
C399        C404   1.393       .  A
C399        H406   1.083       .  S
C400        C401   1.409       .  A
C401        C402   1.400       .  A
C401        N408   1.433       .  S
C402        C403   1.398       .  A
C402        H407   1.084       .  S
C403        C404   1.408       .  A
C404        N405   1.433       .  S
N405        H409   1.046       .  S
N405        H410   1.046   1_455  S
N408        H411   1.046       .  S
N408        H412   1.045       .  S
C413        C414   1.403       .  A
C413        C418   1.406       .  A
C413        H420   1.083       .  S
C414        C415   1.418       .  A
C415        C416   1.414       .  A
C415        N422   1.437       .  S
C416        C417   1.404       .  A
C417        C418   1.413       .  A
C418        N419   1.429   1_556  S
N419        H423   1.046       .  S
N419        H424   1.045   1_455  S
N422        H425   1.045       .  S
C427        C428   1.412       .  A
C427        C432   1.417       .  A
C427        H434   1.082       .  S
C428        C429   1.418       .  A
C429        C430   1.411       .  A
C429        N436   1.438       .  S
C430        C431   1.405       .  A
C430        H435   1.083       .  S
C431        C432   1.408       .  A
C432        N433   1.435       .  S
N433        H437   1.045       .  S
N433        H438   1.043       .  S
N436        H439   1.045       .  S
N436        H440   1.046       .  S
C441        C442   1.395       .  A
C441        C446   1.395       .  A
C441        H448   1.084       .  S
C442        C443   1.406       .  A
C443        C444   1.399       .  A
C444        C445   1.402       .  A
C444        H449   1.083       .  S
C445        C446   1.411       .  A
C446        N447   1.432       .  S
N447        H451   1.045       .  S
N447        H452   1.046       .  S
N450        H453   1.045       .  S
N450        H454   1.046       .  S
N455        C459   1.363       .  A
N455        C683   1.354       .  A
N455        C658   1.451   1_556  S
C456        N682   1.352       .  A
C456        C457   1.377       .  A
C456        C669   1.458       .  S
C457        C458   1.364       .  A
C457        H460   1.082       .  S
C458        C686   1.382       .  A
C458        H461   1.083       .  S
C459        C685   1.383       .  A
C459        C724   1.472       .  S
N462        C466   1.354       .  A
N462        C463   1.370       .  A
N462        C871   1.453   1_554  S
C463        C464   1.388       .  A
C463       C1631   1.489   1_455  S
C464        C465   1.359       .  A
C464       H1375   1.083       .  S
C465        C466   1.374       .  A
C465        H468   1.083       .  S
C466        C630   1.459       .  S
H467       C1372   1.083       .  S
N469        C473   1.354       .  A
N469        C470   1.357       .  A
N469        C613   1.448   1_554  S
C470        C471   1.386       .  A
C470        C498   1.482       .  S
C471        C472   1.367       .  A
C471        H474   1.083       .  S
C472        C473   1.378       .  A
C472        H475   1.082       .  S
C473        C599   1.471       .  S
N476        C481   1.350       .  A
N476        C480   1.352       .  A
N476        H508   1.042       .  S
N477        C484   1.353   1_554  A
N478        C483   1.356       .  A
N478        C482   1.356       .  A
N478        H509   1.043   1_554  S
N479        C486   1.348       .  A
N479        C714   1.351   1_565  A
C480        C488   1.387       .  A
C480        C496   1.414       .  A
C481        C497   1.401       .  A
C481        C489   1.382       .  A
C482        C490   1.387       .  A
C482        C499   1.418       .  A
C483        C498   1.420       .  A
C483        C491   1.387       .  A
C484        C723   1.419   1_556  A
C484       C1400   1.387   1_565  A
C485        C499   1.407       .  A
C485       C1401   1.383       .  A
C486        C494   1.387       .  A
C486        C497   1.409       .  A
C487        N706   1.351   1_556  A
C487        C722   1.384       .  A
C488        C489   1.378       .  A
C488        H500   1.077       .  S
C489        H501   1.083       .  S
C490        C491   1.373       .  A
C490        H502   1.082       .  S
C491        H503   1.079       .  S
C492       C1392   1.387   1_445  A
C492        H504   1.083   1_545  S
C493       C1393   1.383   1_455  A
C493        H505   1.076       .  S
C494        C495   1.374       .  A
C494        H506   1.082       .  S
C495        C714   1.384   1_565  A
C495        H507   1.082   1_565  S
C496        C711   1.420       .  A
C496       C1598   1.493       .  S
C497        C686   1.467       .  S
C499        C514   1.492       .  S
N510        C514   1.360       .  A
N510       C1419   1.359       .  A
N510       C1496   1.440       .  S
C511       N1418   1.360       .  A
C511       C1420   1.379       .  A
C511        C571   1.483   1_655  S
C512       C1419   1.380       .  A
C512        C513   1.371       .  A
C512        H515   1.082       .  S
C513        C514   1.384       .  A
C513        H516   1.082       .  S
C517        N535   1.358       .  A
C517        C554   1.465       .  S
C517        C616   1.500       .  S
N518        N535   1.325       .  A
N518        N540   1.314       .  A
N518       Co555   2.088       .  S
C519        N544   1.349       .  A
C519        C557   1.471       .  S
C519        H564   1.081       .  S
H520        C561   1.080       .  S
C521        N545   1.344       .  A
C521        C525   1.468       .  S
C521        H550   1.081       .  S
Co522       N540   2.071       .  S
Co522       N530   2.080       .  S
Co522       N562   2.086       .  S
Co522       N538   2.081       .  S
Co522      Cl566   2.449       .  S
N523        C561   1.337       .  A
N523        N530   1.322       .  A
N523       Co524   2.079       .  S
Co524       N527   2.102       .  S
Co524       N544   2.103       .  S
Co524       N531   2.072       .  S
Co524      Cl566   2.453       .  S
C525        N563   1.354       .  A
C525        C641   1.504       .  S
N526        N533   1.322       .  A
N526        N556   1.327       .  A
N526       Co559   2.106       .  S
N527        N545   1.318       .  A
N527        N563   1.329       .  A
N528        C557   1.352       .  A
N528        N538   1.326       .  A
H529        C554   1.077       .  S
N530        N551   1.321       .  A
N531        N549   1.322       .  A
N531        N536   1.321       .  A
C532        N536   1.348       .  A
C532        C560   1.459       .  S
C532        C627   1.469       .  S
N533        C548   1.338       .  A
N533       Co555   2.088       .  S
C534        N562   1.342       .  A
C534        C537   1.468       .  S
C534        H568   1.081       .  S
C537        N558   1.344       .  A
C537        C602   1.477       .  S
N538        N544   1.316       .  A
N539        C565   1.339       .  A
N539        N541   1.315       .  A
N539       Co555   2.074       .  S
N540        C554   1.338       .  A
N541        N569   1.328       .  A
N541       Co559   2.092       .  S
H542        C565   1.080       .  S
H543        C560   1.080       .  S
N545       Co559   2.089       .  S
N546        N558   1.318       .  A
N546        N562   1.321       .  A
N546       Co555   2.073       .  S
C547        N551   1.347       .  A
C547        C561   1.462       .  S
C547        C672   1.472       .  S
C548        C567   1.464       .  S
C548        H552   1.079       .  S
N549        C560   1.339       .  A
N549       Co559   2.090       .  S
C553        N569   1.354       .  A
C553        C565   1.460       .  S
C553        C574   1.490       .  S
Co555      Cl566   2.449       .  S
N556        C567   1.355       .  A
C557        C655   1.504       .  S
Co559      Cl566   2.455       .  S
C567        C585   1.487       .  S
C570        C571   1.402       .  A
C570        C575   1.413       .  A
C570        H577   1.084   1_455  S
C571        C572   1.405       .  A
C572        C573   1.400       .  A
C572        N579   1.433       .  S
C573        C574   1.406       .  A
C573        H578   1.082       .  S
C574        C575   1.417       .  A
C575        N576   1.437       .  S
N576        H580   1.046       .  S
N576        H581   1.046       .  S
N579       H1490   1.046       .  S
N579        H583   1.045       .  S
H582       N1487   1.046       .  S
C584        C585   1.407       .  A
C584        C816   1.409       .  A
C584        H591   1.083       .  S
C585        C586   1.418       .  A
C586        C814   1.399       .  A
C586        N593   1.432       .  S
C587        C813   1.394       .  A
C587        C588   1.403       .  A
C587        H592   1.082       .  S
C588       N1418   1.439   1_455  S
C588        C589   1.407       .  A
C589        C811   1.406   1_554  A
C589       N1498   1.436   1_455  S
N590       C1497   1.436       .  S
N590        H594   1.046   1_554  S
N590        H595   1.045       .  S
N593        H596   1.044       .  S
N593        H597   1.043       .  S
C598        C599   1.398       .  A
C598        C603   1.402       .  A
C598        H605   1.084       .  S
C599        C600   1.407       .  A
C600        C601   1.398       .  A
C600        N607   1.432       .  S
C601        C602   1.401       .  A
C601        H606   1.082       .  S
C602        C603   1.418       .  A
C603        N604   1.438       .  S
N604        H608   1.046       .  S
N604        H609   1.046       .  S
N607        H610   1.046       .  S
N607        H611   1.045       .  S
C612        C840   1.396       .  A
C612        C617   1.406       .  A
C612        H619   1.083       .  S
C613        C839   1.399       .  A
C613        C614   1.412       .  A
C614        C842   1.404       .  A
C614        N621   1.438   1_556  S
C615        C841   1.401       .  A
C615        C616   1.405       .  A
C615        H620   1.083       .  S
C616        C617   1.428       .  A
C617        N618   1.428       .  S
N618        H622   1.041       .  S
N618        H623   1.045       .  S
N621        H624   1.045       .  S
N621        H625   1.046   1_554  S
C626        C627   1.401       .  A
C626        C631   1.395       .  A
C626        H633   1.082       .  S
C627        C628   1.411       .  A
C628        C629   1.399       .  A
C628        N635   1.433       .  S
C629        C630   1.398       .  A
C629        H634   1.084       .  S
C630        C631   1.404       .  A
C631        N632   1.432       .  S
N632        H636   1.046       .  S
N632        H637   1.045       .  S
N635        H638   1.045       .  S
N635        H639   1.046       .  S
C640        C641   1.406       .  A
C640        C645   1.408       .  A
C640        H647   1.082       .  S
C641        C642   1.420       .  A
C642        C643   1.415       .  A
C642        N649   1.437       .  S
C643        C644   1.404       .  A
C643        H875   1.083       .  S
C644        N689   1.451       .  S
C644        C645   1.412       .  A
C645        N646   1.429       .  S
N646        H650   1.046       .  S
N646        H651   1.046   1_455  S
H648        C870   1.083       .  S
N649        H652   1.046       .  S
N649        H880   1.046       .  S
H653        N876   1.045       .  S
C654        C655   1.411       .  A
C654        C659   1.417       .  A
C654        H661   1.082       .  S
C655        C656   1.417       .  A
C656        C657   1.407       .  A
C656        N663   1.438       .  S
C657        C658   1.404       .  A
C657        H662   1.084       .  S
C658        C659   1.411       .  A
C659        N660   1.434       .  S
N660        H664   1.046       .  S
N660        H665   1.043       .  S
N663        H666   1.045       .  S
N663        H667   1.046       .  S
C668        C669   1.396       .  A
C668        C673   1.398       .  A
C668        H675   1.084       .  S
C669        C670   1.403       .  A
C670        C671   1.394       .  A
C670        N904   1.431       .  S
C671        C672   1.402       .  A
C671        H676   1.082       .  S
C672        C673   1.412       .  A
C673        N674   1.431       .  S
N674        H678   1.046       .  S
N674        H679   1.046       .  S
N677        C897   1.431       .  S
N677        H680   1.046       .  S
N677        H681   1.046       .  S
N682        C686   1.360       .  A
N682        C885   1.450       .  S
C683        C684   1.376       .  A
C683        C896   1.462       .  S
C684        C685   1.363       .  A
C684        H687   1.082       .  S
C685        H688   1.083       .  S
N689        C693   1.352       .  A
N689        C690   1.367       .  A
C690        C691   1.388       .  A
C690       C1404   1.489       .  S
C691        C692   1.359       .  A
C691       H1602   1.083       .  S
C692        C693   1.374       .  A
C692        H695   1.083       .  S
C693        C857   1.455       .  S
H694       C1599   1.083       .  S
N696        C700   1.352       .  A
N696        C697   1.356       .  A
N696        C840   1.442       .  S
C697        C698   1.386       .  A
C697        C725   1.482       .  S
C698        C699   1.366       .  A
C698        H701   1.083       .  S
C699        C700   1.377       .  A
C699        H702   1.082       .  S
C700        C826   1.470       .  S
N703        C708   1.350   1_556  A
N703        C707   1.352   1_556  A
N703        H735   1.042       .  S
N704        C711   1.354       .  A
N705        C710   1.355       .  A
N705        C709   1.356       .  A
N705        H736   1.042       .  S
N706        C713   1.349   1_554  A
C707        C715   1.386       .  A
C707        C723   1.415       .  A
C708        C724   1.403   1_554  A
C708        C716   1.382       .  A
C709        C717   1.387       .  A
C709        C726   1.418       .  A
C710        C725   1.419       .  A
C710        C718   1.387       .  A
C711       C1627   1.387   1_565  A
C712        C726   1.407       .  A
C712       C1628   1.383       .  A
C713        C721   1.386       .  A
C713        C724   1.410       .  A
C715        C716   1.379       .  A
C715        H727   1.075       .  S
C716        H728   1.083       .  S
C717        C718   1.374       .  A
C717        H729   1.082       .  S
C718        H730   1.078       .  S
C719       C1619   1.387   1_545  A
C719        H731   1.083   1_545  S
C720       C1620   1.384   1_455  A
C720        H732   1.074       .  S
C721        C722   1.374       .  A
C721        H733   1.081       .  S
C722        H734   1.083       .  S
C723       C1371   1.496       .  S
C726        C741   1.496       .  S
N737        C741   1.360       .  A
N737       C1646   1.360       .  A
N737       C1723   1.438       .  S
C738       N1645   1.363       .  A
C738       C1647   1.380       .  A
C738        C798   1.485   1_655  S
C739       C1646   1.381       .  A
C739        C740   1.374       .  A
C739        H742   1.082       .  S
C740        C741   1.384       .  A
C740        H743   1.082       .  S
C744        N762   1.358       .  A
C744        C781   1.471       .  S
C744        C843   1.507       .  S
N745        N762   1.326       .  A
N745        N767   1.315       .  A
N745       Co782   2.091       .  S
C746        N771   1.346       .  A
C746        C784   1.467       .  S
C746        H791   1.081       .  S
H747        C788   1.080       .  S
C748        N772   1.346       .  A
C748        C752   1.471       .  S
C748        H777   1.081       .  S
Co749       N767   2.088       .  S
Co749       N757   2.078       .  S
Co749       N789   2.082       .  S
Co749       N765   2.090       .  S
Co749      Cl793   2.451       .  S
N750        C788   1.338       .  A
N750        N757   1.322       .  A
N750       Co751   2.077       .  S
Co751       N754   2.096       .  S
Co751       N771   2.091       .  S
Co751       N758   2.071       .  S
Co751      Cl793   2.452       .  S
C752        N790   1.353       .  A
C752        C868   1.505       .  S
N753        N760   1.322       .  A
N753        N783   1.322       .  A
N753       Co786   2.086       .  S
N754        N772   1.317       .  A
N754        N790   1.328       .  A
N755        C784   1.354       .  A
N755        N765   1.327       .  A
H756        C781   1.077       .  S
N757        N778   1.319       .  A
N758        N776   1.321       .  A
N758        N763   1.320       .  A
C759        N763   1.347       .  A
C759        C787   1.456       .  S
C759        C854   1.462       .  S
N760        C775   1.339       .  A
N760       Co782   2.092       .  S
C761        N789   1.341       .  A
C761        C764   1.464       .  S
C761        H795   1.081       .  S
C764        N785   1.346       .  A
C764        C829   1.476       .  S
N765        N771   1.315       .  A
N766        C792   1.341       .  A
N766        N768   1.316       .  A
N766       Co782   2.077       .  S
N767        C781   1.344       .  A
N768        N796   1.328       .  A
N768       Co786   2.093       .  S
H769        C792   1.081       .  S
H770        C787   1.080       .  S
N772       Co786   2.094       .  S
N773        N785   1.319       .  A
N773        N789   1.321       .  A
N773       Co782   2.081       .  S
C774        N778   1.347       .  A
C774        C788   1.461       .  S
C774        C899   1.471       .  S
C775        C794   1.466       .  S
C775        H779   1.080       .  S
N776        C787   1.336       .  A
N776       Co786   2.077       .  S
C780        N796   1.353       .  A
C780        C792   1.461       .  S
C780        C801   1.491       .  S
Co782      Cl793   2.450       .  S
N783        C794   1.350       .  A
C784        C882   1.503       .  S
Co786      Cl793   2.453       .  S
C794        C812   1.478       .  S
C797        C798   1.402       .  A
C797        C802   1.413       .  A
C797        H804   1.084       .  S
C798        C799   1.407       .  A
C799        C800   1.402       .  A
C799        N806   1.433       .  S
C800        C801   1.405       .  A
C800        H805   1.083       .  S
C801        C802   1.417       .  A
C802        N803   1.437       .  S
N803        H807   1.045       .  S
N803        H808   1.046       .  S
N806       H1717   1.046       .  S
N806        H810   1.046       .  S
H809       N1714   1.046       .  S
C811        C812   1.408       .  A
C811        H818   1.083       .  S
C812        C813   1.414   1_556  A
C813        N820   1.432       .  S
C814        C815   1.403       .  A
C814        H819   1.083       .  S
C815       N1645   1.444   1_455  S
C815        C816   1.408       .  A
C816       N1725   1.436   1_455  S
N817       C1724   1.436       .  S
N817        H821   1.046       .  S
N817        H822   1.045       .  S
N820        H823   1.045       .  S
N820        H824   1.042   1_554  S
C825        C826   1.398       .  A
C825        C830   1.400       .  A
C825        H832   1.084       .  S
C826        C827   1.408       .  A
C827        C828   1.398       .  A
C827        N834   1.432       .  S
C828        C829   1.402       .  A
C828        H833   1.082       .  S
C829        C830   1.416       .  A
C830        N831   1.438       .  S
N831        H835   1.046       .  S
N831        H836   1.045       .  S
N834        H837   1.046       .  S
N834        H838   1.045       .  S
C839        C844   1.410       .  A
C839        H846   1.083       .  S
C840        C841   1.411       .  A
C841        N848   1.438       .  S
C842        C843   1.406       .  A
C842        H847   1.083       .  S
C843        C844   1.428       .  A
C844        N845   1.428       .  S
N845        H849   1.042       .  S
N845        H850   1.045       .  S
N848        H851   1.045       .  S
N848        H852   1.046       .  S
C853        C854   1.399       .  A
C853        C858   1.392       .  A
C853        H860   1.083       .  S
C854        C855   1.409       .  A
C855        C856   1.398       .  A
C855        N862   1.433       .  S
C856        C857   1.398       .  A
C856        H861   1.084       .  S
C857        C858   1.406       .  A
C858        N859   1.433       .  S
N859        H863   1.045       .  S
N859        H864   1.046   1_455  S
N862        H865   1.046       .  S
N862        H866   1.045       .  S
C867        C868   1.407       .  A
C867        C872   1.410       .  A
C867        H874   1.082       .  S
C868        C869   1.419       .  A
C869        C870   1.414       .  A
C869        N876   1.437       .  S
C870        C871   1.405       .  A
C871        C872   1.411       .  A
C872        N873   1.427   1_456  S
N873        H877   1.045   1_655  S
N873        H878   1.046   1_554  S
N876        H879   1.046       .  S
C881        C882   1.412       .  A
C881        C886   1.416       .  A
C881        H888   1.082       .  S
C882        C883   1.417       .  A
C883        C884   1.408       .  A
C883        N890   1.438       .  S
C884        C885   1.403       .  A
C884        H889   1.083       .  S
C885        C886   1.410       .  A
C886        N887   1.435       .  S
N887        H891   1.045       .  S
N887        H892   1.043       .  S
N890        H893   1.045       .  S
N890        H894   1.046       .  S
C895        C896   1.397       .  A
C895        C900   1.397       .  A
C895        H902   1.084       .  S
C896        C897   1.404       .  A
C897        C898   1.397       .  A
C898        C899   1.403       .  A
C898        H903   1.082       .  S
C899        C900   1.411       .  A
C900        N901   1.432       .  S
N901        H905   1.046       .  S
N901        H906   1.046       .  S
N904        H907   1.045       .  S
N904        H908   1.046       .  S
N909        C913   1.364   1_554  A
N909       C1137   1.355   1_554  A
N909       C1112   1.452       .  S
C910       N1136   1.353       .  A
C910        C911   1.376       .  A
C910       C1123   1.464       .  S
C911        C912   1.365       .  A
C911        H914   1.082       .  S
C912       C1140   1.383       .  A
C912        H915   1.083       .  S
C913       C1139   1.383       .  A
C913       C1178   1.475   1_556  S
N916        C920   1.356       .  A
N916        C917   1.367       .  A
N916       C1325   1.452   1_554  S
C917        C918   1.388       .  A
C918        C919   1.361       .  A
C919        C920   1.375       .  A
C919        H922   1.083       .  S
C920       C1084   1.461       .  S
N923        C927   1.352       .  A
N923        C924   1.356       .  A
N923       C1067   1.444   1_554  S
C924        C925   1.386       .  A
C924        C952   1.483       .  S
C925        C926   1.368       .  A
C925        H928   1.083   1_545  S
C926        C927   1.378       .  A
C926        H929   1.082       .  S
C927       C1053   1.472       .  S
N930        C935   1.351       .  A
N930        C934   1.350       .  A
N930        H962   1.043       .  S
N931        C938   1.350   1_554  A
N931       C1393   1.349       .  A
N932        C937   1.358       .  A
N932        C936   1.358       .  A
N932        H963   1.042   1_554  S
N933        C940   1.349       .  A
N933       C1168   1.350       .  A
C934        C942   1.388       .  A
C934        C950   1.414   1_655  A
C935        C951   1.402       .  A
C935        C943   1.381       .  A
C936        C944   1.388       .  A
C936        C953   1.424       .  A
C937        C952   1.422       .  A
C937        C945   1.386       .  A
C938       C1177   1.417   1_656  A
C939       N1385   1.350   1_545  A
C939        C953   1.411       .  A
C940        C948   1.385       .  A
C940        C951   1.409       .  A
C941       N1160   1.350   1_556  A
C941       C1176   1.384       .  A
C941       C1406   1.402   1_556  A
C942        C943   1.377       .  A
C942        H954   1.076       .  S
C943        H955   1.083       .  S
C944        C945   1.375       .  A
C944        H956   1.082       .  S
C945        H957   1.078       .  S
C946       C1401   1.376   1_556  A
C946        H958   1.083       .  S
C947       C1400   1.377   1_554  A
C947        H959   1.077       .  S
C948        C949   1.373       .  A
C948        H960   1.080       .  S
C949       C1168   1.385       .  A
C949        H961   1.083       .  S
C950       C1165   1.419       .  A
C951       C1140   1.475       .  S
C952       C1395   1.398   1_544  A
C953        C968   1.499       .  S
N964        C968   1.364       .  A
C965       C1025   1.488       .  S
C966        C967   1.372       .  A
C966        H969   1.082       .  S
C967        C968   1.385       .  A
C967        H970   1.082       .  S
C971        N989   1.358       .  A
C971       C1008   1.472       .  S
C971       C1070   1.510       .  S
N972        N989   1.327       .  A
N972        N994   1.315       .  A
N972      Co1009   2.094       .  S
C973        N998   1.346       .  A
C973       C1011   1.466       .  S
C973       H1018   1.081       .  S
H974       C1015   1.081       .  S
C975        N999   1.347       .  A
C975        C979   1.472       .  S
C975       H1004   1.081       .  S
Co976       N994   2.091       .  S
Co976       N984   2.080       .  S
Co976      N1016   2.087       .  S
Co976       N992   2.089       .  S
Co976     Cl1020   2.453       .  S
N977       C1015   1.339       .  A
N977        N984   1.322       .  A
N977       Co978   2.080       .  S
Co978       N981   2.094       .  S
Co978       N998   2.089       .  S
Co978       N985   2.075       .  S
Co978     Cl1020   2.449       .  S
C979       N1017   1.352       .  A
C979       C1095   1.504       .  S
N980        N987   1.323       .  A
N980       N1010   1.324       .  A
N980      Co1013   2.096       .  S
N981        N999   1.318       .  A
N981       N1017   1.328       .  A
N982       C1011   1.353       .  A
N982        N992   1.326       .  A
H983       C1008   1.077       .  S
N984       N1005   1.320       .  A
N985       N1003   1.321       .  A
N985        N990   1.320       .  A
C986        N990   1.347       .  A
C986       C1014   1.460       .  S
C986       C1081   1.465       .  S
N987       C1002   1.338       .  A
N987      Co1009   2.086       .  S
C988       N1016   1.344       .  A
C988        C991   1.467       .  S
C988       H1022   1.081       .  S
C991       N1012   1.345       .  A
C991       C1056   1.479       .  S
N992        N998   1.316       .  A
N993       C1019   1.340       .  A
N993        N995   1.317       .  A
N993      Co1009   2.082       .  S
N994       C1008   1.343       .  A
N995       N1023   1.329       .  A
N995      Co1013   2.097       .  S
H996       C1019   1.080       .  S
H997       C1014   1.081       .  S
N999      Co1013   2.102       .  S
N1000      N1012   1.318       .  A
N1000      N1016   1.321       .  A
N1000     Co1009   2.079       .  S
C1001      N1005   1.348       .  A
C1001      C1015   1.461       .  S
C1001      C1126   1.472       .  S
C1002      C1021   1.462       .  S
C1002      H1006   1.081       .  S
N1003      C1014   1.340       .  A
N1003     Co1013   2.083       .  S
C1007      N1023   1.354       .  A
C1007      C1019   1.461       .  S
C1007      C1028   1.493       .  S
Co1009    Cl1020   2.448       .  S
N1010      C1021   1.352       .  A
C1011      C1109   1.499       .  S
Co1013    Cl1020   2.459       .  S
C1021      C1039   1.478       .  S
C1024      C1025   1.404       .  A
C1024      C1029   1.415       .  A
C1024      H1031   1.084       .  S
C1025      C1026   1.407       .  A
C1026      C1027   1.401       .  A
C1026      N1033   1.433       .  S
C1027      C1028   1.405       .  A
C1027      H1032   1.082       .  S
C1028      C1029   1.417       .  A
C1029      N1030   1.437       .  S
N1030      H1034   1.046       .  S
N1030      H1035   1.045       .  S
N1033      H1037   1.046       .  S
C1038      C1039   1.404       .  A
C1038      C1270   1.406       .  A
C1038      H1045   1.083       .  S
C1039      C1040   1.413       .  A
C1040      C1268   1.398       .  A
C1040      N1047   1.433       .  S
C1041      C1267   1.395       .  A
C1041      C1042   1.401       .  A
C1041      H1046   1.083       .  S
C1042      C1043   1.407       .  A
C1043      C1265   1.405   1_554  A
N1044      H1048   1.046   1_554  S
N1044      H1049   1.045       .  S
N1047      H1050   1.045       .  S
N1047      H1051   1.043       .  S
C1052      C1053   1.397       .  A
C1052      C1057   1.400       .  A
C1052      H1059   1.084       .  S
C1053      C1054   1.409       .  A
C1054      C1055   1.400       .  A
C1054      N1061   1.431       .  S
C1055      C1056   1.402       .  A
C1055      H1060   1.083       .  S
C1056      C1057   1.417       .  A
C1057      N1058   1.437       .  S
N1058      H1062   1.046       .  S
N1058      H1063   1.046       .  S
N1061      H1064   1.046       .  S
N1061      H1065   1.045       .  S
C1066      C1294   1.397       .  A
C1066      C1071   1.409       .  A
C1066      H1073   1.083       .  S
C1067      C1293   1.396       .  A
C1067      C1068   1.412       .  A
C1068      C1296   1.403       .  A
C1068      N1075   1.438   1_556  S
C1069      C1295   1.407       .  A
C1069      C1070   1.408       .  A
C1069      H1074   1.083       .  S
C1070      C1071   1.428       .  A
C1071      N1072   1.427       .  S
N1072      H1076   1.043       .  S
N1072      H1077   1.045       .  S
N1075      H1078   1.046       .  S
N1075      H1079   1.046       .  S
C1080      C1081   1.399       .  A
C1080      C1085   1.395       .  A
C1080      H1087   1.083       .  S
C1081      C1082   1.410       .  A
C1082      C1083   1.401       .  A
C1082      N1089   1.433       .  S
C1083      C1084   1.398       .  A
C1083      H1088   1.084       .  S
C1084      C1085   1.408       .  A
C1085      N1086   1.433       .  S
N1086      H1090   1.046       .  S
N1086      H1091   1.045       .  S
N1089      H1092   1.046       .  S
N1089      H1093   1.045       .  S
C1094      C1095   1.405       .  A
C1094      C1099   1.410       .  A
C1094      H1101   1.082       .  S
C1095      C1096   1.417       .  A
C1096      C1097   1.413       .  A
C1096      N1103   1.432       .  S
C1097      C1098   1.405       .  A
C1097      H1329   1.084       .  S
C1098      N1143   1.453       .  S
C1098      C1099   1.413       .  A
C1099      N1100   1.428       .  S
N1100      H1104   1.045       .  S
N1100      H1105   1.046       .  S
H1102      C1324   1.083       .  S
N1103      H1106   1.046       .  S
N1103      H1334   1.045       .  S
H1107      N1330   1.046       .  S
C1108      C1109   1.411       .  A
C1108      C1113   1.416       .  A
C1108      H1115   1.082       .  S
C1109      C1110   1.415       .  A
C1110      C1111   1.406       .  A
C1110      N1117   1.438       .  S
C1111      C1112   1.406       .  A
C1111      H1116   1.083       .  S
C1112      C1113   1.411       .  A
C1113      N1114   1.434       .  S
N1114      H1118   1.046       .  S
N1114      H1119   1.043       .  S
N1117      H1120   1.045       .  S
N1117      H1121   1.046       .  S
C1122      C1123   1.397       .  A
C1122      C1127   1.398       .  A
C1122      H1129   1.084       .  S
C1123      C1124   1.405       .  A
C1124      C1125   1.397       .  A
C1124      N1358   1.431       .  S
C1125      C1126   1.402       .  A
C1125      H1130   1.082       .  S
C1126      C1127   1.411       .  A
C1127      N1128   1.432       .  S
N1128      H1132   1.045       .  S
N1128      H1133   1.046       .  S
N1131      C1351   1.430       .  S
N1131      H1134   1.046       .  S
N1131      H1135   1.045       .  S
N1136      C1140   1.362       .  A
N1136      C1339   1.448       .  S
C1137      C1138   1.376       .  A
C1137      C1350   1.465       .  S
C1138      C1139   1.361       .  A
C1138      H1141   1.082       .  S
C1139      H1142   1.083       .  S
N1143      C1147   1.356       .  A
N1143      C1144   1.370       .  A
C1144      C1145   1.389       .  A
C1145      C1146   1.359       .  A
C1146      C1147   1.374       .  A
C1146      H1149   1.083       .  S
C1147      C1311   1.461       .  S
N1150      C1154   1.353       .  A
N1150      C1151   1.359       .  A
N1150      C1294   1.448       .  S
C1151      C1152   1.387       .  A
C1151      C1179   1.486       .  S
C1152      C1153   1.368       .  A
C1152      H1155   1.083   1_545  S
C1153      C1154   1.377       .  A
C1153      H1156   1.082       .  S
C1154      C1280   1.470       .  S
N1157      C1162   1.351       .  A
N1157      C1161   1.351       .  A
N1157      H1189   1.042   1_554  S
N1158      C1165   1.353   1_655  A
N1158      C1620   1.351       .  A
N1159      C1164   1.359       .  A
N1159      C1163   1.360       .  A
N1159      H1190   1.042       .  S
N1160      C1167   1.350   1_554  A
C1161      C1169   1.387       .  A
C1161      C1177   1.417   1_655  A
C1162      C1178   1.404       .  A
C1162      C1170   1.382       .  A
C1163      C1171   1.386       .  A
C1163      C1180   1.424       .  A
C1164      C1179   1.424       .  A
C1164      C1172   1.386       .  A
C1166      N1612   1.351   1_545  A
C1166      C1180   1.410       .  A
C1167      C1175   1.386       .  A
C1167      C1178   1.411   1_556  A
C1168      C1633   1.402       .  A
C1169      C1170   1.378       .  A
C1169      H1181   1.074       .  S
C1170      H1182   1.083       .  S
C1171      C1172   1.373       .  A
C1171      H1183   1.082       .  S
C1172      H1184   1.078       .  S
C1173      C1628   1.377       .  A
C1173      H1185   1.083       .  S
C1174      C1627   1.375       .  A
C1174      H1186   1.076       .  S
C1175      C1176   1.375       .  A
C1175      H1187   1.081       .  S
C1176      H1188   1.083       .  S
C1179      C1622   1.401   1_545  A
C1180      C1195   1.499       .  S
N1191      C1195   1.365       .  A
C1192      C1252   1.480       .  S
C1193      C1194   1.371       .  A
C1193      H1196   1.082       .  S
C1194      C1195   1.383       .  A
C1194      H1197   1.082       .  S
C1198      N1216   1.356       .  A
C1198      C1235   1.470       .  S
C1198      C1297   1.503       .  S
N1199      N1216   1.325       .  A
N1199      N1221   1.313       .  A
N1199     Co1236   2.082       .  S
C1200      N1225   1.347       .  A
C1200      C1238   1.470       .  S
C1200      H1245   1.081       .  S
H1201      C1242   1.081       .  S
C1202      N1226   1.345       .  A
C1202      C1206   1.468       .  S
C1202      H1231   1.081       .  S
Co1203     N1221   2.084       .  S
Co1203     N1211   2.081       .  S
Co1203     N1243   2.092       .  S
Co1203     N1219   2.082       .  S
Co1203    Cl1247   2.448       .  S
N1204      C1242   1.341       .  A
N1204      N1211   1.322       .  A
N1204     Co1205   2.082       .  S
Co1205     N1208   2.100       .  S
Co1205     N1225   2.097       .  S
Co1205     N1212   2.075       .  S
Co1205    Cl1247   2.453       .  S
C1206      N1244   1.354       .  A
C1206      C1322   1.503       .  S
N1207      N1214   1.321       .  A
N1207      N1237   1.326       .  A
N1207     Co1240   2.102       .  S
N1208      N1226   1.318       .  A
N1208      N1244   1.329       .  A
N1209      C1238   1.352       .  A
N1209      N1219   1.326       .  A
H1210      C1235   1.077       .  S
N1211      N1232   1.319       .  A
N1212      N1230   1.323       .  A
N1212      N1217   1.321       .  A
C1213      N1217   1.347       .  A
C1213      C1241   1.461       .  S
C1213      C1308   1.470       .  S
N1214      C1229   1.335       .  A
N1214     Co1236   2.075       .  S
C1215      N1243   1.343       .  A
C1215      C1218   1.469       .  S
C1215      H1249   1.081       .  S
C1218      N1239   1.345       .  A
C1218      C1283   1.479       .  S
N1219      N1225   1.316       .  A
N1220      C1246   1.337       .  A
N1220      N1222   1.315       .  A
N1220     Co1236   2.070       .  S
N1221      C1235   1.342       .  A
N1222      N1250   1.328       .  A
N1222     Co1240   2.093       .  S
H1223      C1246   1.080       .  S
H1224      C1241   1.081       .  S
N1226     Co1240   2.092       .  S
N1227      N1239   1.319       .  A
N1227      N1243   1.320       .  A
N1227     Co1236   2.073       .  S
C1228      N1232   1.346       .  A
C1228      C1242   1.463       .  S
C1228      C1353   1.475       .  S
C1229      C1248   1.460       .  S
C1229      H1233   1.078       .  S
N1230      C1241   1.340       .  A
N1230     Co1240   2.094       .  S
C1234      N1250   1.355       .  A
C1234      C1246   1.459       .  S
C1234      C1255   1.491       .  S
Co1236    Cl1247   2.446       .  S
N1237      C1248   1.356       .  A
C1238      C1336   1.503       .  S
Co1240    Cl1247   2.456       .  S
C1248      C1266   1.481       .  S
C1251      C1252   1.401       .  A
C1251      C1256   1.413       .  A
C1251      H1258   1.083       .  S
C1252      C1253   1.404       .  A
C1253      C1254   1.399       .  A
C1253      N1260   1.433       .  S
C1254      C1255   1.407       .  A
C1254      H1259   1.081       .  S
C1255      C1256   1.417       .  A
C1256      N1257   1.437       .  S
N1257      H1261   1.045       .  S
N1257      H1262   1.046       .  S
N1260      H1264   1.045       .  S
C1265      C1266   1.406       .  A
C1265      H1272   1.083       .  S
C1266      C1267   1.418   1_556  A
C1267      N1274   1.433       .  S
C1268      C1269   1.406       .  A
C1268      H1273   1.081       .  S
C1269      C1270   1.410       .  A
N1271      H1275   1.045       .  S
N1271      H1276   1.046       .  S
N1274      H1277   1.044       .  S
N1274      H1278   1.043   1_554  S
C1279      C1280   1.397       .  A
C1279      C1284   1.401       .  A
C1279      H1286   1.084       .  S
C1280      C1281   1.408       .  A
C1281      C1282   1.399       .  A
C1281      N1288   1.431       .  S
C1282      C1283   1.402       .  A
C1282      H1287   1.082       .  S
C1283      C1284   1.417       .  A
C1284      N1285   1.438       .  S
N1285      H1289   1.046       .  S
N1285      H1290   1.046       .  S
N1288      H1291   1.046       .  S
N1288      H1292   1.046       .  S
C1293      C1298   1.407       .  A
C1293      H1300   1.083       .  S
C1294      C1295   1.414       .  A
C1295      N1302   1.438       .  S
C1296      C1297   1.407       .  A
C1296      H1301   1.083       .  S
C1297      C1298   1.427       .  A
C1298      N1299   1.427       .  S
N1299      H1303   1.041       .  S
N1299      H1304   1.045       .  S
N1302      H1305   1.045       .  S
N1302      H1306   1.046       .  S
C1307      C1308   1.400       .  A
C1307      C1312   1.396       .  A
C1307      H1314   1.083       .  S
C1308      C1309   1.411       .  A
C1309      C1310   1.401       .  A
C1309      N1316   1.433       .  S
C1310      C1311   1.398       .  A
C1310      H1315   1.084       .  S
C1311      C1312   1.407       .  A
C1312      N1313   1.433       .  S
N1313      H1317   1.046       .  S
N1313      H1318   1.045       .  S
N1316      H1319   1.046       .  S
N1316      H1320   1.046       .  S
C1321      C1322   1.405       .  A
C1321      C1326   1.407       .  A
C1321      H1328   1.083       .  S
C1322      C1323   1.420       .  A
C1323      C1324   1.416       .  A
C1323      N1330   1.437       .  S
C1324      C1325   1.404       .  A
C1325      C1326   1.411       .  A
C1326      N1327   1.429   1_556  S
N1327      H1331   1.046       .  S
N1327      H1332   1.045       .  S
N1330      H1333   1.045       .  S
C1335      C1336   1.411       .  A
C1335      C1340   1.415       .  A
C1335      H1342   1.082       .  S
C1336      C1337   1.418       .  A
C1337      C1338   1.408       .  A
C1337      N1344   1.438       .  S
C1338      C1339   1.404       .  A
C1338      H1343   1.084       .  S
C1339      C1340   1.408       .  A
C1340      N1341   1.435       .  S
N1341      H1345   1.046       .  S
N1341      H1346   1.041       .  S
N1344      H1347   1.046       .  S
N1344      H1348   1.045       .  S
C1349      C1350   1.396       .  A
C1349      C1354   1.395       .  A
C1349      H1356   1.084       .  S
C1350      C1351   1.405       .  A
C1351      C1352   1.400       .  A
C1352      C1353   1.403       .  A
C1352      H1357   1.082       .  S
C1353      C1354   1.412       .  A
C1354      N1355   1.430       .  S
N1355      H1359   1.045       .  S
N1355      H1360   1.046       .  S
N1358      H1361   1.046       .  S
N1358      H1362   1.046       .  S
N1363      C1367   1.362       .  A
N1363      C1591   1.354       .  A
N1363      C1566   1.453   1_556  S
C1364      N1590   1.351       .  A
C1364      C1365   1.376       .  A
C1364      C1577   1.457       .  S
C1365      C1366   1.365       .  A
C1365      H1368   1.082       .  S
C1366      C1594   1.383       .  A
C1366      H1369   1.083       .  S
C1367      C1593   1.383       .  A
C1367      C1632   1.467   1_556  S
N1370      C1374   1.355       .  A
N1370      C1371   1.370       .  A
N1370      C1779   1.452   1_554  S
C1371      C1372   1.389       .  A
C1372      C1373   1.359       .  A
C1373      C1374   1.374       .  A
C1373      H1376   1.083       .  S
C1374      C1538   1.460       .  S
N1377      C1381   1.355       .  A
N1377      C1378   1.358       .  A
N1377      C1521   1.446   1_554  S
C1378      C1379   1.386       .  A
C1378      C1406   1.484       .  S
C1379      C1380   1.367       .  A
C1379      H1382   1.083       .  S
C1380      C1381   1.379       .  A
C1380      H1383   1.082       .  S
C1381      C1507   1.476       .  S
N1384      C1389   1.350       .  A
N1384      C1388   1.350       .  A
N1384      H1416   1.044       .  S
N1385      C1392   1.353   1_554  A
N1386      C1391   1.357       .  A
N1386      C1390   1.358       .  A
N1386      H1417   1.041   1_554  S
N1387      C1394   1.350       .  A
N1387      C1622   1.350       .  A
C1388      C1396   1.388       .  A
C1388      C1404   1.413   1_655  A
C1389      C1405   1.398       .  A
C1389      C1397   1.380       .  A
C1390      C1398   1.386       .  A
C1390      C1407   1.421       .  A
C1391      C1406   1.421       .  A
C1391      C1399   1.387       .  A
C1392      C1631   1.420   1_556  A
C1393      C1407   1.407       .  A
C1394      C1402   1.384       .  A
C1394      C1405   1.409       .  A
C1395      N1614   1.347   1_556  A
C1395      C1630   1.385       .  A
C1396      C1397   1.375       .  A
C1396      H1408   1.076       .  S
C1397      H1409   1.083       .  S
C1398      C1399   1.374       .  A
C1398      H1410   1.082       .  S
C1399      H1411   1.079       .  S
C1400      H1412   1.083   1_545  S
C1401      H1413   1.077       .  S
C1402      C1403   1.373       .  A
C1402      H1414   1.077       .  S
C1403      C1622   1.384       .  A
C1403      H1415   1.083       .  S
C1404      C1619   1.419       .  A
C1405      C1594   1.473       .  S
C1407      C1422   1.498       .  S
N1418      C1422   1.362       .  A
C1419      C1479   1.479       .  S
C1420      C1421   1.373       .  A
C1420      H1423   1.082       .  S
C1421      C1422   1.385       .  A
C1421      H1424   1.082       .  S
C1425      N1443   1.357       .  A
C1425      C1462   1.472       .  S
C1425      C1524   1.508       .  S
N1426      N1443   1.326       .  A
N1426      N1448   1.314       .  A
N1426     Co1463   2.087       .  S
C1427      N1452   1.347       .  A
C1427      C1465   1.468       .  S
C1427      H1472   1.081       .  S
H1428      C1469   1.081       .  S
C1429      N1453   1.344       .  A
C1429      C1433   1.468       .  S
C1429      H1458   1.081       .  S
Co1430     N1448   2.092       .  S
Co1430     N1438   2.082       .  S
Co1430     N1470   2.095       .  S
Co1430     N1446   2.092       .  S
Co1430    Cl1474   2.451       .  S
N1431      C1469   1.335       .  A
N1431      N1438   1.323       .  A
N1431     Co1432   2.074       .  S
Co1432     N1435   2.110       .  S
Co1432     N1452   2.095       .  S
Co1432     N1439   2.067       .  S
Co1432    Cl1474   2.451       .  S
C1433      N1471   1.357       .  A
C1433      C1549   1.508       .  S
N1434      N1441   1.322       .  A
N1434      N1464   1.324       .  A
N1434     Co1467   2.095       .  S
N1435      N1453   1.317       .  A
N1435      N1471   1.331       .  A
N1436      C1465   1.354       .  A
N1436      N1446   1.327       .  A
H1437      C1462   1.077       .  S
N1438      N1459   1.321       .  A
N1439      N1457   1.321       .  A
N1439      N1444   1.320       .  A
C1440      N1444   1.346       .  A
C1440      C1468   1.459       .  S
C1440      C1535   1.464       .  S
N1441      C1456   1.335       .  A
N1441     Co1463   2.080       .  S
C1442      N1470   1.345       .  A
C1442      C1445   1.470       .  S
C1442      H1476   1.081       .  S
C1445      N1466   1.344       .  A
C1445      C1510   1.482       .  S
N1446      N1452   1.316       .  A
N1447      C1473   1.336       .  A
N1447      N1449   1.315       .  A
N1447     Co1463   2.067       .  S
N1448      C1462   1.345       .  A
N1449      N1477   1.327       .  A
N1449     Co1467   2.083       .  S
H1450      C1473   1.080       .  S
H1451      C1468   1.080       .  S
N1453     Co1467   2.086       .  S
N1454      N1466   1.319       .  A
N1454      N1470   1.320       .  A
N1454     Co1463   2.076       .  S
C1455      N1459   1.347       .  A
C1455      C1469   1.458       .  S
C1455      C1580   1.460       .  S
C1456      C1475   1.462       .  S
C1456      H1460   1.079       .  S
N1457      C1468   1.339       .  A
N1457     Co1467   2.086       .  S
C1461      N1477   1.352       .  A
C1461      C1473   1.458       .  S
C1461      C1482   1.485       .  S
Co1463    Cl1474   2.445       .  S
N1464      C1475   1.353       .  A
C1465      C1563   1.505       .  S
Co1467    Cl1474   2.456       .  S
C1475      C1493   1.478       .  S
C1478      C1479   1.402       .  A
C1478      C1483   1.411       .  A
C1478      H1485   1.084       .  S
C1479      C1480   1.404       .  A
C1480      C1481   1.396       .  A
C1480      N1487   1.433       .  S
C1481      C1482   1.405       .  A
C1481      H1486   1.081       .  S
C1482      C1483   1.417       .  A
C1483      N1484   1.437       .  S
N1484      H1488   1.046       .  S
N1484      H1489   1.046       .  S
N1487      H1491   1.046       .  S
C1492      C1493   1.406       .  A
C1492      C1724   1.405       .  A
C1492      H1499   1.083       .  S
C1493      C1494   1.415       .  A
C1494      C1722   1.393       .  A
C1494      N1501   1.433       .  S
C1495      C1721   1.394       .  A
C1495      C1496   1.403       .  A
C1495      H1500   1.082       .  S
C1496      C1497   1.408       .  A
C1497      C1719   1.407   1_554  A
N1498      H1502   1.046   1_554  S
N1498      H1503   1.045       .  S
N1501      H1504   1.045       .  S
N1501      H1505   1.042       .  S
C1506      C1507   1.398       .  A
C1506      C1511   1.401       .  A
C1506      H1513   1.084       .  S
C1507      C1508   1.409       .  A
C1508      C1509   1.401       .  A
C1508      N1515   1.431       .  S
C1509      C1510   1.402       .  A
C1509      H1514   1.082       .  S
C1510      C1511   1.418       .  A
C1511      N1512   1.438       .  S
N1512      H1516   1.046       .  S
N1512      H1517   1.045       .  S
N1515      H1518   1.045       .  S
N1515      H1519   1.046       .  S
C1520      C1748   1.398       .  A
C1520      C1525   1.410       .  A
C1520      H1527   1.083       .  S
C1521      C1747   1.400       .  A
C1521      C1522   1.411       .  A
C1522      C1750   1.400       .  A
C1522      N1529   1.438   1_556  S
C1523      C1749   1.404       .  A
C1523      C1524   1.407       .  A
C1523      H1528   1.083       .  S
C1524      C1525   1.428       .  A
C1525      N1526   1.428       .  S
N1526      H1530   1.043       .  S
N1526      H1531   1.045       .  S
N1529      H1532   1.046       .  S
N1529      H1533   1.045       .  S
C1534      C1535   1.398       .  A
C1534      C1539   1.394       .  A
C1534      H1541   1.083       .  S
C1535      C1536   1.410       .  A
C1536      C1537   1.400       .  A
C1536      N1543   1.433       .  S
C1537      C1538   1.399       .  A
C1537      H1542   1.084       .  S
C1538      C1539   1.407       .  A
C1539      N1540   1.432       .  S
N1540      H1544   1.045       .  S
N1540      H1545   1.046       .  S
N1543      H1546   1.046       .  S
N1543      H1547   1.046       .  S
C1548      C1549   1.407       .  A
C1548      C1553   1.408       .  A
C1548      H1555   1.082       .  S
C1549      C1550   1.420       .  A
C1550      C1551   1.419       .  A
C1550      N1557   1.437       .  S
C1551      C1552   1.406       .  A
C1551      H1783   1.083       .  S
C1552      N1597   1.454       .  S
C1552      C1553   1.411       .  A
C1553      N1554   1.428       .  S
N1554      H1558   1.045       .  S
N1554      H1559   1.046       .  S
H1556      C1778   1.083       .  S
N1557      H1560   1.045       .  S
N1557      H1788   1.045       .  S
H1561      N1784   1.045       .  S
C1562      C1563   1.411       .  A
C1562      C1567   1.417       .  A
C1562      H1569   1.082       .  S
C1563      C1564   1.417       .  A
C1564      C1565   1.409       .  A
C1564      N1571   1.438       .  S
C1565      C1566   1.405       .  A
C1565      H1570   1.083       .  S
C1566      C1567   1.411       .  A
C1567      N1568   1.434       .  S
N1568      H1572   1.045       .  S
N1568      H1573   1.042       .  S
N1571      H1574   1.045       .  S
N1571      H1575   1.046       .  S
C1576      C1577   1.397       .  A
C1576      C1581   1.400       .  A
C1576      H1583   1.084       .  S
C1577      C1578   1.406       .  A
C1578      C1579   1.391       .  A
C1578      N1812   1.432       .  S
C1579      C1580   1.398       .  A
C1579      H1584   1.083       .  S
C1580      C1581   1.409       .  A
C1581      N1582   1.432       .  S
N1582      H1586   1.046       .  S
N1582      H1587   1.045       .  S
N1585      C1805   1.430       .  S
N1585      H1588   1.046       .  S
N1585      H1589   1.046       .  S
N1590      C1594   1.359       .  A
N1590      C1793   1.447       .  S
C1591      C1592   1.376       .  A
C1591      C1804   1.457       .  S
C1592      C1593   1.360       .  A
C1592      H1595   1.082       .  S
C1593      H1596   1.083       .  S
N1597      C1601   1.355       .  A
N1597      C1598   1.370       .  A
C1598      C1599   1.388       .  A
C1599      C1600   1.358       .  A
C1600      C1601   1.375       .  A
C1600      H1603   1.083       .  S
C1601      C1765   1.459       .  S
N1604      C1608   1.353       .  A
N1604      C1605   1.358       .  A
N1604      C1748   1.448       .  S
C1605      C1606   1.387       .  A
C1605      C1633   1.486       .  S
C1606      C1607   1.367       .  A
C1606      H1609   1.083       .  S
C1607      C1608   1.377       .  A
C1607      H1610   1.082       .  S
C1608      C1734   1.470       .  S
N1611      C1616   1.350       .  A
N1611      C1615   1.350       .  A
N1611      H1643   1.043   1_554  S
N1612      C1619   1.353   1_655  A
N1613      C1618   1.358       .  A
N1613      C1617   1.359       .  A
N1613      H1644   1.043       .  S
N1614      C1621   1.346   1_554  A
C1615      C1623   1.387       .  A
C1615      C1631   1.413       .  A
C1616      C1632   1.399       .  A
C1616      C1624   1.380       .  A
C1617      C1625   1.387       .  A
C1617      C1634   1.424       .  A
C1618      C1633   1.424       .  A
C1618      C1626   1.387       .  A
C1620      C1634   1.410       .  A
C1621      C1629   1.386       .  A
C1621      C1632   1.406   1_556  A
C1623      C1624   1.377       .  A
C1623      H1635   1.079       .  S
C1624      H1636   1.082       .  S
C1625      C1626   1.374       .  A
C1625      H1637   1.082       .  S
C1626      H1638   1.077       .  S
C1627      H1639   1.083   1_545  S
C1628      H1640   1.076       .  S
C1629      C1630   1.375       .  A
C1629      H1641   1.081       .  S
C1630      H1642   1.083       .  S
C1634      C1649   1.501       .  S
N1645      C1649   1.366       .  A
C1646      C1706   1.484       .  S
C1647      C1648   1.371       .  A
C1647      H1650   1.082       .  S
C1648      C1649   1.384       .  A
C1648      H1651   1.082       .  S
C1652      N1670   1.356       .  A
C1652      C1689   1.470       .  S
C1652      C1751   1.503       .  S
N1653      N1670   1.324       .  A
N1653      N1675   1.316       .  A
N1653     Co1690   2.089       .  S
C1654      N1679   1.343       .  A
C1654      C1692   1.466       .  S
C1654      H1699   1.081       .  S
H1655      C1696   1.080       .  S
C1656      N1680   1.343       .  A
C1656      C1660   1.468       .  S
C1656      H1685   1.081       .  S
Co1657     N1675   2.087       .  S
Co1657     N1665   2.068       .  S
Co1657     N1697   2.077       .  S
Co1657     N1673   2.091       .  S
Co1657    Cl1701   2.456       .  S
N1658      C1696   1.337       .  A
N1658      N1665   1.322       .  A
N1658     Co1659   2.078       .  S
Co1659     N1662   2.102       .  S
Co1659     N1679   2.089       .  S
Co1659     N1666   2.074       .  S
Co1659    Cl1701   2.448       .  S
C1660      N1698   1.355       .  A
C1660      C1776   1.505       .  S
N1661      N1668   1.321       .  A
N1661      N1691   1.324       .  A
N1661     Co1694   2.084       .  S
N1662      N1680   1.317       .  A
N1662      N1698   1.329       .  A
N1663      C1692   1.355       .  A
N1663      N1673   1.328       .  A
H1664      C1689   1.078       .  S
N1665      N1686   1.318       .  A
N1666      N1684   1.320       .  A
N1666      N1671   1.321       .  A
C1667      N1671   1.349       .  A
C1667      C1695   1.458       .  S
C1667      C1762   1.468       .  S
N1668      C1683   1.337       .  A
N1668     Co1690   2.088       .  S
C1669      N1697   1.340       .  A
C1669      C1672   1.465       .  S
C1669      H1703   1.081       .  S
C1672      N1693   1.345       .  A
C1672      C1737   1.474       .  S
N1673      N1679   1.316       .  A
N1674      C1700   1.340       .  A
N1674      N1676   1.316       .  A
N1674     Co1690   2.078       .  S
N1675      C1689   1.345       .  A
N1676      N1704   1.327       .  A
N1676     Co1694   2.090       .  S
H1677      C1700   1.080       .  S
H1678      C1695   1.080       .  S
N1680     Co1694   2.089       .  S
N1681      N1693   1.318       .  A
N1681      N1697   1.320       .  A
N1681     Co1690   2.075       .  S
C1682      N1686   1.345       .  A
C1682      C1696   1.461       .  S
C1682      C1807   1.468       .  S
C1683      C1702   1.464       .  S
C1683      H1687   1.080       .  S
N1684      C1695   1.337       .  A
N1684     Co1694   2.078       .  S
C1688      N1704   1.353       .  A
C1688      C1700   1.460       .  S
C1688      C1709   1.489       .  S
Co1690    Cl1701   2.444       .  S
N1691      C1702   1.350       .  A
C1692      C1790   1.501       .  S
Co1694    Cl1701   2.454       .  S
C1702      C1720   1.477       .  S
C1705      C1706   1.403       .  A
C1705      C1710   1.413       .  A
C1705      H1712   1.084       .  S
C1706      C1707   1.406       .  A
C1707      C1708   1.401       .  A
C1707      N1714   1.433       .  S
C1708      C1709   1.405       .  A
C1708      H1713   1.082       .  S
C1709      C1710   1.417       .  A
C1710      N1711   1.437       .  S
N1711      H1715   1.045       .  S
N1711      H1716   1.046       .  S
N1714      H1718   1.045       .  S
C1719      C1720   1.407       .  A
C1719      H1726   1.084       .  S
C1720      C1721   1.413   1_556  A
C1721      N1728   1.433       .  S
C1722      C1723   1.402       .  A
C1722      H1727   1.082       .  S
C1723      C1724   1.408       .  A
N1725      H1729   1.045       .  S
N1725      H1730   1.046       .  S
N1728      H1731   1.045       .  S
N1728      H1732   1.043   1_554  S
C1733      C1734   1.398       .  A
C1733      C1738   1.400       .  A
C1733      H1740   1.084       .  S
C1734      C1735   1.409       .  A
C1735      C1736   1.396       .  A
C1735      N1742   1.431       .  S
C1736      C1737   1.401       .  A
C1736      H1741   1.082       .  S
C1737      C1738   1.416       .  A
C1738      N1739   1.438       .  S
N1739      H1743   1.046       .  S
N1739      H1744   1.046       .  S
N1742      H1745   1.046       .  S
N1742      H1746   1.046       .  S
C1747      C1752   1.410       .  A
C1747      H1754   1.084       .  S
C1748      C1749   1.413       .  A
C1749      N1756   1.438       .  S
C1750      C1751   1.405       .  A
C1750      H1755   1.083       .  S
C1751      C1752   1.428       .  A
C1752      N1753   1.429       .  S
N1753      H1757   1.043       .  S
N1753      H1758   1.045       .  S
N1756      H1759   1.046       .  S
N1756      H1760   1.046       .  S
C1761      C1762   1.401       .  A
C1761      C1766   1.394       .  A
C1761      H1768   1.082       .  S
C1762      C1763   1.410       .  A
C1763      C1764   1.400       .  A
C1763      N1770   1.433       .  S
C1764      C1765   1.399       .  A
C1764      H1769   1.084       .  S
C1765      C1766   1.406       .  A
C1766      N1767   1.434       .  S
N1767      H1771   1.045       .  S
N1767      H1772   1.046       .  S
N1770      H1773   1.046       .  S
N1770      H1774   1.046       .  S
C1775      C1776   1.405       .  A
C1775      C1780   1.407       .  A
C1775      H1782   1.082       .  S
C1776      C1777   1.419       .  A
C1777      C1778   1.417       .  A
C1777      N1784   1.437       .  S
C1778      C1779   1.406       .  A
C1779      C1780   1.411       .  A
C1780      N1781   1.428   1_556  S
N1781      H1785   1.046       .  S
N1781      H1786   1.046       .  S
N1784      H1787   1.046       .  S
C1789      C1790   1.409       .  A
C1789      C1794   1.411       .  A
C1789      H1796   1.082       .  S
C1790      C1791   1.418       .  A
C1791      C1792   1.411       .  A
C1791      N1798   1.437       .  S
C1792      C1793   1.403       .  A
C1792      H1797   1.083       .  S
C1793      C1794   1.409       .  A
C1794      N1795   1.434       .  S
N1795      H1799   1.045       .  S
N1795      H1800   1.043       .  S
N1798      H1801   1.045       .  S
N1798      H1802   1.046       .  S
C1803      C1804   1.396       .  A
C1803      C1808   1.395       .  A
C1803      H1810   1.084       .  S
C1804      C1805   1.403       .  A
C1805      C1806   1.394       .  A
C1806      C1807   1.401       .  A
C1806      H1811   1.082       .  S
C1807      C1808   1.412       .  A
C1808      N1809   1.432       .  S
N1809      H1813   1.046       .  S
N1809      H1814   1.046       .  S
N1812      H1815   1.046       .  S
N1812      H1816   1.045       .  S
