geometry optimzed in LAMMPS
_audit_creation_date              2020-11-30 
_audit_creation_method            'lammps2cif' 
_symmetry_space_group_name_H-M    'P1' 
_symmetry_Int_Tables_number       1 
_symmetry_cell_setting            triclinic 
loop_ 
_symmetry_equiv_pos_as_xyz 
  x,y,z 
_cell_length_a                    50.65412881 
_cell_length_b                    50.593201608945435 
_cell_length_c                    61.802168770034115 
_cell_angle_alpha                 90.18006588245579 
_cell_angle_beta                  90.17248700842563 
_cell_angle_gamma                 120.00583112775364 
loop_ 
_atom_site_label 
_atom_site_type_symbol 
_atom_site_fract_x 
_atom_site_fract_y 
_atom_site_fract_z 
_atom_site_charge 
O1          O  0.02438445  0.13650509  0.33054099    -0.88900
C2          C  0.09460009  0.18593271  0.28788027     0.87200
Mg3        Mg  0.02077245  0.15576298  0.36099563     1.58100
O4          O  0.09983524  0.12884715  0.31693417    -0.88600
O5          O  0.02749135  0.09805853  0.31726850    -0.75900
C6          C  0.15784328  0.21586922  0.40532415     0.92200
O7          O  0.05878549  0.20896256  0.32172710    -0.75700
O8          O  0.13457414  0.21913561  0.40457913    -0.83200
Mg9        Mg  0.03159730  0.16437434  0.30234824     1.58000
C10         C  0.18740021  0.15682496  0.34241246     0.92100
O11         O  0.00282761  0.12433935  0.27899270    -0.81500
H12         H  0.08477623  0.08523809  0.32472578    -0.06800
C13         C  0.14902844  0.21561352  0.34098776     0.87100
O14         O  0.04362175  0.13250782  0.37913360    -0.76000
O15         O  0.07263453  0.16281725  0.29538609    -0.88800
O16         O  0.16931434  0.14719268  0.32627921    -0.81600
C17         C  0.12902346  0.13525303  0.26354730     0.92300
C18         C  0.01032695  0.11263044  0.26358232     0.92100
Mg19       Mg  0.13418159  0.16061687  0.36836502     1.58000
O20         O  0.16260313  0.20063396  0.39104299    -0.81500
O21         O  0.10697446  0.11563453  0.34905929    -0.75700
O22         O  0.10132544  0.12873885  0.26483594    -0.81600
O23         O  0.48816407  0.16500442  0.30996267    -0.83300
O24         O  0.06450972  0.19381607  0.40602128    -0.81600
C25         C  0.09674042  0.10892522  0.32983264     0.86600
O26         O  0.09291667  0.16162338  0.37549571    -0.88800
O27         O  0.13952926  0.18789031  0.34045568    -0.88900
O28         O  0.13670612  0.22681629  0.35294987    -0.75900
Mg29       Mg  0.06621902  0.11748025  0.29207651     1.58000
O30         O  0.14771653  0.14829384  0.27901530    -0.83300
H31         H  0.99623151  0.09348213  0.33968062    -0.07000
O32         O  0.06422646  0.19530577  0.35414599    -0.88600
H33         H  0.07979759  0.23898609  0.34640248    -0.06800
H34         H  0.07457616  0.12304569  0.39262189    -0.07000
C35         C  0.06790764  0.21537230  0.34119011     0.86500
C36         C  0.01506666  0.10883273  0.32957326     0.87100
C37         C  0.07078120  0.13858937  0.38292684     0.87200
H38         H  0.16772956  0.23055555  0.33064518    -0.07000
O39         O  0.12184079  0.19257734  0.29196060    -0.76000
Mg40       Mg  0.09878268  0.20688427  0.37850554     1.58000
H41         H  0.09055241  0.20114855  0.27800189    -0.07000
C42         C  0.47774750  0.17041678  0.32705481     0.92100
O43         O  0.01800845  0.17743615  0.39305912    -0.83300
C44         C  0.03770830  0.18947939  0.40821903     0.92200
O45         O  0.03267456  0.10802917  0.26521546    -0.83200
Mg46       Mg  0.14335424  0.16854149  0.31050001     1.58200
O47         O  0.99103531  0.17379270  0.34531169    -0.81600
O48         O  0.17924140  0.16309364  0.36022521    -0.83300
C49         C  0.17478495  0.07156369  0.18853565     0.01800
C50         C  0.17385525  0.09920070  0.18925063     0.01700
C51         C  0.18177939  0.11752168  0.17065663    -0.18800
C52         C  0.19072129  0.10901259  0.15168783     0.01800
C53         C  0.19196471  0.08182709  0.15114959     0.01700
C54         C  0.18427016  0.06353225  0.16953730    -0.18800
H55         H  0.18517018  0.04257479  0.16892816     0.03800
H56         H  0.18058396  0.13832190  0.17083056     0.03800
C57         C  0.41484491  0.05965351  0.18388394     0.01800
C58         C  0.44425047  0.08573180  0.18282698     0.01700
C59         C  0.45267629  0.10423829  0.16437711    -0.18800
C60         C  0.43266221  0.09697567  0.14663928     0.01800
C61         C  0.40387289  0.06966055  0.14723152     0.01700
C62         C  0.39516363  0.05182253  0.16602705    -0.18800
H63         H  0.37274732  0.03159586  0.16676423     0.03800
H64         H  0.47506048  0.12451802  0.16383023     0.03800
O65         O  0.14398841  0.44472348  0.33674701    -0.88900
C66         C  0.07601678  0.42575255  0.37954868     0.87200
Mg67       Mg  0.14734210  0.46660964  0.30648249     1.58100
O68         O  0.06978513  0.36276542  0.35052837    -0.88600
O69         O  0.14230608  0.40381438  0.34959178    -0.75900
C70         C  0.01031369  0.38902254  0.26086873     0.92200
O71         O  0.10978338  0.48255237  0.34516725    -0.75700
O72         O  0.03319490  0.41606193  0.26108905    -0.83200
Mg73       Mg  0.13822938  0.46665607  0.36466809     1.58000
C74         C  0.48234613  0.30224308  0.32456422     0.92100
O75         O  0.16798819  0.45600955  0.38732982    -0.81500
H76         H  0.08520522  0.33460056  0.34251199    -0.06800
C77         C  0.01960218  0.39914428  0.32533862     0.87100
O78         O  0.12546668  0.42071194  0.28833785    -0.76000
O79         O  0.09799231  0.42429943  0.37237904    -0.88800
O80         O  0.99801213  0.31175433  0.34191603    -0.81600
C81         C  0.04174183  0.34121673  0.40386246     0.92300
C82         C  0.16371683  0.43626437  0.40175221     0.92100
Mg83       Mg  0.03582791  0.35963273  0.29854099     1.58000
O84         O  0.00691379  0.36977674  0.27534600    -0.81500
O85         O  0.06345507  0.34298142  0.31813692    -0.75700
O86         O  0.06966752  0.36180371  0.40219660    -0.81600
O87         O  0.18113471  0.01139218  0.35656966    -0.83300
O88         O  0.10497573  0.46544849  0.26060304    -0.81600
C89         C  0.07316475  0.34617677  0.33747916     0.86600
O90         O  0.07623313  0.40185817  0.29057715    -0.88800
O91         O  0.03006891  0.38180101  0.32642848    -0.88900
O92         O  0.03111511  0.42202044  0.31284593    -0.75900
Mg93       Mg  0.10434109  0.38527955  0.37502383     1.58000
O94         O  0.02263249  0.33600728  0.38875948    -0.83300
H95         H  0.17298154  0.43110272  0.32716985    -0.07000
O96         O  0.10375731  0.46337202  0.31250793    -0.88600
H97         H  0.08746828  0.49064590  0.32103818    -0.06800
H98         H  0.09445261  0.38108416  0.27383078    -0.07000
C99         C  0.09996424  0.47943553  0.32583171     0.86500
C100        C  0.15412212  0.42706867  0.33746706     0.87100
C101        C  0.09833274  0.40046641  0.28362841     0.87200
H102        H  0.00061091  0.39508325  0.33551382    -0.07000
O103        O  0.04878317  0.40554828  0.37503446    -0.76000
Mg104      Mg  0.06947689  0.44084773  0.28755493     1.58000
H105        H  0.08009316  0.44516818  0.38938571    -0.07000
C106        C  0.18943614  0.02630262  0.33900630     0.92100
O107        O  0.15154106  0.49000238  0.27487898    -0.83300
C108        C  0.13322783  0.48534946  0.25934768     0.92200
O109        O  0.14044300  0.40964252  0.40106355    -0.83200
Mg110      Mg  0.02644019  0.35963212  0.35690370     1.58200
O111        O  0.17535604  0.01448351  0.32134212    -0.81600
O112        O  0.49186973  0.31664414  0.30688527    -0.83300
O113        O  0.30837711  0.35963091  0.33971430    -0.88900
C114        C  0.36438686  0.43051127  0.37989393     0.87200
Mg115      Mg  0.32443465  0.35554080  0.30847664     1.58100
O116        O  0.30483941  0.43707424  0.35585981    -0.88600
O117        O  0.27239627  0.36481253  0.35514532    -0.75900
C118        C  0.37970592  0.48974357  0.26307350     0.92200
O119        O  0.38205287  0.39245397  0.34469882    -0.75700
O120        O  0.38372872  0.46698719  0.26429630    -0.83200
Mg121      Mg  0.33943842  0.36641039  0.36587758     1.58000
C122        C  0.32480179  0.02092469  0.32927464     0.92100
O123        O  0.30132227  0.33866897  0.39017852    -0.81500
H124        H  0.26036958  0.42155390  0.35122319    -0.06800
C125        C  0.38765916  0.48470585  0.32720410     0.87100
O126        O  0.29914847  0.37737841  0.29203938    -0.76000
O127        O  0.34016872  0.40842101  0.37362493    -0.88800
O128        O  0.32508941  0.50863003  0.34714554    -0.81600
C129        C  0.31962157  0.46646640  0.40984792     0.92300
C130        C  0.29106078  0.34632950  0.40633977     0.92100
Mg131      Mg  0.32842570  0.46746421  0.30299291     1.58000
O132        O  0.36484069  0.49502081  0.27737522    -0.81500
O133        O  0.28667253  0.44119708  0.32482912    -0.75700
O134        O  0.31461384  0.43934086  0.40747866    -0.81600
O135        O  0.33828081  0.32208379  0.35711030    -0.83300
O136        O  0.35666824  0.39725336  0.26251881    -0.81600
C137        C  0.28307100  0.43302337  0.34447471     0.86600
O138        O  0.32932174  0.42664017  0.29544581    -0.88800
O139        O  0.36023739  0.47589377  0.32920028    -0.88900
O140        O  0.39697688  0.47111184  0.31477142    -0.75900
Mg141      Mg  0.29645938  0.40380597  0.38012530     1.58000
O142        O  0.32866063  0.48506554  0.39410955    -0.83300
H143        H  0.26428710  0.33261191  0.33229640    -0.07000
O144        O  0.36435195  0.39885463  0.31422053    -0.88600
H145        H  0.40863473  0.41310342  0.31857230    -0.06800
H146        H  0.28943988  0.40873528  0.27970977    -0.07000
C147        C  0.38594307  0.40183395  0.32533507     0.86500
C148        C  0.28110018  0.35135524  0.34200842     0.87100
C149        C  0.30549730  0.40465996  0.28855270     0.87200
H150        H  0.40404284  0.50382957  0.33683323    -0.07000
O151        O  0.37054991  0.45777771  0.37645964    -0.76000
Mg152      Mg  0.37379016  0.43228499  0.28993583     1.58000
H153        H  0.38087756  0.42655922  0.38822914    -0.07000
C154        C  0.34365402  0.31381724  0.33897286     0.92100
O155        O  0.34361874  0.35203678  0.27639435    -0.83300
C156        C  0.35464291  0.37125825  0.26115830     0.92200
O157        O  0.28845858  0.36996854  0.40611377    -0.83200
Mg158      Mg  0.34534379  0.48039353  0.36076983     1.58200
O159        O  0.34574420  0.32841517  0.32175074    -0.81600
O160        O  0.32788361  0.01045611  0.31130930    -0.83300
C161        C  0.40204539  0.34099041  0.18614528     0.01800
C162        C  0.43025305  0.34149056  0.18564524     0.01700
C163        C  0.43808864  0.33108965  0.16675747    -0.18800
C164        C  0.41896491  0.32175983  0.14827116     0.01800
C165        C  0.39236617  0.32418474  0.14869606     0.01700
C166        C  0.38410749  0.33338085  0.16751916    -0.18800
H167        H  0.36308478  0.33415269  0.16777632     0.03800
H168        H  0.45912431  0.33041880  0.16640960     0.03800
O169        O  0.22185561  0.03042809  0.00452206    -0.88900
C170        C  0.23924870  0.47875770  0.04708625     0.87200
Mg171      Mg  0.19987441  0.01339167  0.97386796     1.58100
O172        O  0.30299416  0.03438740  0.01820196    -0.88600
O173        O  0.26393152  0.06804079  0.01782838    -0.75900
C174        C  0.27028008  0.44742060  0.92974733     0.92200
O175        O  0.18120758  0.45755525  0.01242312    -0.75700
O176        O  0.24482530  0.44655434  0.92992867    -0.83200
Mg177      Mg  0.19940591  0.50175431  0.03219632     1.58000
C178        C  0.36120076  0.00602739  0.99235927     0.92100
O179        O  0.21158133  0.04165064  0.05575886    -0.81500
H180        H  0.33223056  0.07766903  0.01013078    -0.06800
C181        C  0.26184235  0.44760273  0.99402795     0.87100
O182        O  0.24573832  0.03490112  0.95602025    -0.76000
O183        O  0.24132674  0.50215080  0.03928699    -0.88800
O184        O  0.35144990  0.01172468  0.00969396    -0.81600
C185        C  0.32380921  0.02601113  0.07210546     0.92300
C186        C  0.23160116  0.05471414  0.07061824     0.92100
Mg187      Mg  0.30335404  0.00166874  0.96679891     1.58000
O188        O  0.28948727  0.45978765  0.94511979    -0.81500
O189        O  0.32249430  0.04696759  0.98580309    -0.75700
O190        O  0.30340295  0.03355646  0.07017253    -0.81600
O191        O  0.15487330  0.50100901  0.02452923    -0.83300
O192        O  0.20032956  0.47229425  0.92844865    -0.81600
C193        C  0.31985026  0.05397379  0.00512578     0.86600
O194        O  0.26236399  0.00276842  0.95926609    -0.88800
O195        O  0.28110963  0.47502915  0.99484137    -0.88900
O196        O  0.23876631  0.43759458  0.98158740    -0.75900
Mg197      Mg  0.28130907  0.04666532  0.04281038     1.58000
O198        O  0.32975007  0.01319926  0.05666427    -0.83300
H199        H  0.23745035  0.07372280  0.99576198    -0.07000
O200        O  0.20036173  0.47166131  0.98013565    -0.88600
H201        H  0.17107628  0.42806913  0.98727397    -0.06800
H202        H  0.28486780  0.04130206  0.94229668    -0.07000
C203        C  0.18346470  0.45152646  0.99282284     0.86500
C204        C  0.24058991  0.05796043  0.00569664     0.87100
C205        C  0.26513138  0.02668873  0.95195000     0.87200
H206        H  0.26439394  0.43185981  0.00439658    -0.07000
O207        O  0.25914183  0.47110937  0.04332130    -0.76000
Mg208      Mg  0.22188094  0.45879122  0.95590264     1.58000
H209        H  0.21977113  0.46417741  0.05695993    -0.07000
C210        C  0.14098249  0.49756227  0.00659841     0.92100
O211        O  0.17534819  0.49418268  0.94201859    -0.83300
C212        C  0.18034111  0.48044617  0.92671434     0.92200
O213        O  0.25784210  0.05756457  0.06906113    -0.83200
Mg214      Mg  0.30458838  0.49345094  0.02495538     1.58200
O215        O  0.15339940  0.49781234  0.98871534    -0.81600
O216        O  0.34608652  0.99955571  0.97478921    -0.83300
O217        O  0.28175637  0.30633411  0.99422891    -0.88900
C218        C  0.26505154  0.23502291  0.95451669     0.87200
Mg219      Mg  0.30279456  0.31074507  0.02496392     1.58100
O220        O  0.20062740  0.22881804  0.98053122    -0.88600
O221        O  0.23960232  0.30117307  0.98062080    -0.75900
C222        C  0.22574708  0.17727343  0.07216582     0.92200
O223        O  0.32167546  0.27274727  0.98847285    -0.75700
O224        O  0.25198137  0.20077462  0.07095468    -0.83200
Mg225      Mg  0.30446878  0.29863704  0.96754687     1.58000
C226        C  0.13745685  0.14482767  0.00674590     0.92100
O227        O  0.29339250  0.32589674  0.94325094    -0.81500
H228        H  0.17086816  0.24328130  0.98528203    -0.06800
C229        C  0.23663601  0.18095172  0.00805802     0.87100
O230        O  0.25603511  0.28867276  0.04193030    -0.76000
O231        O  0.26297398  0.25713697  0.96076863    -0.88800
O232        O  0.14953491  0.15785511  0.98896034    -0.81600
C233        C  0.18309912  0.19944390  0.92709473     0.92300
C234        C  0.27331308  0.31966274  0.92863858     0.92100
Mg235      Mg  0.19507358  0.19776881  0.03257819     1.58000
O236        O  0.20568554  0.17067033  0.05746350    -0.81500
O237        O  0.17800014  0.22342336  0.01143177    -0.75700
O238        O  0.20484869  0.22674523  0.92907632    -0.81600
O239        O  0.34777365  0.34256547  0.97513660    -0.83300
O240        O  0.29382356  0.27028867  0.07112082    -0.81600
C241        C  0.18254329  0.23214411  0.99191909     0.86600
O242        O  0.23671670  0.23926999  0.03927285    -0.88800
O243        O  0.21806273  0.18986077  0.00619955    -0.88900
O244        O  0.25988868  0.19470854  0.02024581    -0.75900
Mg245      Mg  0.22356563  0.26201085  0.95597015     1.58000
O246        O  0.17522467  0.18075523  0.94264045    -0.83300
H247        H  0.26585400  0.33402763  0.00248896    -0.07000
O248        O  0.29923372  0.26721724  0.01949159    -0.88600
H249        H  0.32864038  0.25237628  0.01440707    -0.06800
H250        H  0.21524942  0.25780363  0.05477744    -0.07000
C251        C  0.31709695  0.26374590  0.00793974     0.86500
C252        C  0.26290829  0.31492829  0.99274363     0.87100
C253        C  0.23510880  0.26151966  0.04581454     0.87200
H254        H  0.23349878  0.16155476  0.99859088    -0.07000
O255        O  0.24458832  0.20778970  0.95867331    -0.76000
Mg256      Mg  0.27594380  0.23440980  0.04445871     1.58000
H257        H  0.28511137  0.23897559  0.94571331    -0.07000
C258        C  0.36206727  0.35244414  0.99290278     0.92100
O259        O  0.32612970  0.31507353  0.05692584    -0.83300
C260        C  0.31691384  0.29686606  0.07279749     0.92200
O261        O  0.24713339  0.29609895  0.92970411    -0.83200
Mg262      Mg  0.19764465  0.18548447  0.97513793     1.58200
O263        O  0.35066554  0.33882721  0.01066937    -0.81600
O264        O  0.15166987  0.15404839  0.02464307    -0.83300
O265        O  0.02332936  0.21784820  0.99323593    -0.88900
C266        C  0.47223498  0.23549252  0.95068863     0.87200
Mg267      Mg  0.00577573  0.19634177  0.02427840     1.58100
O268        O  0.03061920  0.29896339  0.97862751    -0.88600
O269        O  0.06178911  0.25751764  0.97857728    -0.75900
C270        C  0.44825290  0.27561439  0.07055312     0.92200
O271        O  0.45121849  0.17959832  0.98625053    -0.75700
O272        O  0.44335147  0.24826186  0.07004213    -0.83200
Mg273      Mg  0.49449475  0.19498787  0.96566824     1.58000
C274        C  0.00888101  0.36186834  0.00527944     0.92100
O275        O  0.03308343  0.20469805  0.94137237    -0.81500
H276        H  0.07450230  0.32579001  0.98657690    -0.06800
C277        C  0.44502239  0.26343295  0.00571106     0.87100
O278        O  0.03008213  0.24238954  0.04209091    -0.76000
O279        O  0.49605406  0.23712791  0.95725405    -0.88800
O280        O  0.00992190  0.34969974  0.98751833    -0.81600
C281        C  0.02170146  0.32099974  0.92567368     0.92300
C282        C  0.04707485  0.22380617  0.92627515     0.92100
Mg283      Mg  0.00207673  0.30338405  0.03171878     1.58000
O284        O  0.46411968  0.29474274  0.05598605    -0.81500
O285        O  0.04510213  0.31806499  0.01120298    -0.75700
O286        O  0.03012455  0.30109816  0.92676173    -0.81600
O287        O  0.49437476  0.15107740  0.97440954    -0.83300
O288        O  0.46556595  0.19840818  0.07108385    -0.81600
C289        C  0.05099002  0.31487560  0.99171257     0.86600
O290        O  0.99953912  0.26108024  0.04010402    -0.88800
O291        O  0.47279553  0.28067631  0.00425677    -0.88900
O292        O  0.43397315  0.24080578  0.01842481    -0.75900
Mg293      Mg  0.04145796  0.27618190  0.95355296     1.58000
O294        O  0.00796334  0.32525259  0.94128309    -0.83300
H295        H  0.06648221  0.23138179  0.00144721    -0.07000
O296        O  0.46509109  0.19923692  0.01877709    -0.88600
H297        H  0.42139555  0.17171090  0.01063268    -0.06800
H298        H  0.03887151  0.28206520  0.05654374    -0.07000
C299        C  0.44497087  0.18295885  0.00563179     0.86500
C300        C  0.05105616  0.23513106  0.99152275     0.87100
C301        C  0.02319206  0.26257938  0.04688555     0.87200
H302        H  0.42983793  0.26731146  0.99561355    -0.07000
O303        O  0.46533558  0.25566987  0.95556426    -0.76000
Mg304      Mg  0.45399362  0.22243909  0.04376188     1.58000
H305        H  0.45645739  0.21593733  0.94112679    -0.07000
C306        C  0.48990317  0.13701472  0.99223588     0.92100
O307        O  0.48647226  0.17296139  0.05642630    -0.83300
C308        C  0.47271109  0.17753177  0.07192365     0.92200
O309        O  0.05142291  0.25090128  0.92691195    -0.83200
Mg310      Mg  0.48988270  0.30187815  0.97329648     1.58200
O311        O  0.48657583  0.14835825  0.00976314    -0.81600
O312        O  0.00382746  0.34778888  0.02314078    -0.83300
O313        O  0.14218285  0.02402776  0.67065784    -0.88900
C314        C  0.19606971  0.09664317  0.71009937     0.87200
Mg315      Mg  0.15647132  0.01910374  0.63899572     1.58100
O316        O  0.13540721  0.09964735  0.68435744    -0.88600
O317        O  0.10476786  0.02719099  0.68541238    -0.75900
C318        C  0.21214009  0.15418619  0.59253873     0.92200
O319        O  0.21573737  0.05957680  0.67454114    -0.75700
O320        O  0.21700451  0.13182426  0.59295998    -0.83200
Mg321      Mg  0.17455367  0.03329994  0.69672450     1.58000
C322        C  0.15477752  0.18393041  0.65759781     0.92100
O323        O  0.13912567  0.00608799  0.72303916    -0.81500
H324        H  0.09080483  0.08300084  0.67936032    -0.06800
C325        C  0.21839561  0.14861757  0.65611940     0.87100
O326        O  0.13094411  0.04049204  0.62266909    -0.76000
O327        O  0.17246050  0.07390458  0.70376698    -0.88800
O328        O  0.15345088  0.17057742  0.67527861    -0.81600
C329        C  0.14626685  0.12992343  0.73698803     0.92300
C330        C  0.12557009  0.01243330  0.73777919     0.92100
Mg331      Mg  0.15935788  0.13028071  0.63161041     1.58000
O332        O  0.19578512  0.15735696  0.60671159    -0.81500
O333        O  0.11733401  0.10335952  0.65316820    -0.75700
O334        O  0.14307642  0.10340188  0.73596744    -0.81600
O335        O  0.17645308  0.49033905  0.68878190    -0.83300
O336        O  0.19287628  0.06021695  0.59198846    -0.81600
C337        C  0.11360203  0.09500357  0.67278276     0.86600
O338        O  0.16144137  0.08988438  0.62394030    -0.88800
O339        O  0.19084204  0.13915760  0.65799804    -0.88900
O340        O  0.22830737  0.13550353  0.64374092    -0.75900
Mg341      Mg  0.12749018  0.06724271  0.70932410     1.58000
O342        O  0.15692259  0.14847770  0.72133799    -0.83300
H343        H  0.09852842  0.99419804  0.66384695    -0.07000
O344        O  0.19735647  0.06289058  0.64335062    -0.88600
H345        H  0.24188086  0.07884393  0.64804761    -0.06800
H346        H  0.12092753  0.07087466  0.60904610    -0.07000
C347        C  0.21918925  0.06730571  0.65481084     0.86500
C348        C  0.11461407  0.01403730  0.67303953     0.87100
C349        C  0.13736281  0.06743607  0.61793954     0.87200
H350        H  0.23441290  0.16798668  0.66574801    -0.07000
O351        O  0.20145710  0.12346198  0.70595337    -0.76000
Mg352      Mg  0.20674392  0.09634335  0.61890178     1.58000
H353        H  0.21276659  0.09364888  0.71901579    -0.07000
C354        C  0.17889600  0.47985696  0.67059202     0.92100
O355        O  0.17187588  0.01344263  0.60562973    -0.83300
C356        C  0.18381814  0.03186406  0.58992584     0.92200
O357        O  0.12003327  0.03413979  0.73579025    -0.83200
Mg358      Mg  0.17507321  0.14387851  0.68911971     1.58200
O359        O  0.17643659  0.99107876  0.65280164    -0.81600
O360        O  0.15848461  0.17392942  0.63959374    -0.83300
C361        C  0.11306414  0.18274637  0.84940653     0.01800
C362        C  0.08605796  0.18461604  0.84986904     0.01700
C363        C  0.06682759  0.17491304  0.83149403    -0.18800
C364        C  0.07490754  0.16529819  0.81245363     0.01800
C365        C  0.10321503  0.16604798  0.81167201     0.01700
C366        C  0.12117082  0.17355204  0.83037295    -0.18800
H367        H  0.14163634  0.17176672  0.83017656     0.03800
H368        H  0.04546871  0.17497146  0.83196117     0.03800
C369        C  0.06627376  0.40791207  0.85498360     0.01800
C370        C  0.09579936  0.43411807  0.85452454     0.01700
C371        C  0.10632439  0.45083138  0.83532770    -0.18800
C372        C  0.08838645  0.44195389  0.81654824     0.01800
C373        C  0.05843316  0.41679416  0.81724451     0.01700
C374        C  0.04767260  0.40020492  0.83646498    -0.18800
H375        H  0.02482487  0.38058440  0.83684801     0.03800
H376        H  0.12908227  0.47060631  0.83485406     0.03800
O377        O  0.46811551  0.11967534  0.67390628    -0.88900
C378        C  0.40060171  0.09968777  0.71778734     0.87200
Mg379      Mg  0.46989660  0.14058711  0.64315183     1.58100
O380        O  0.39602799  0.03651271  0.68962351    -0.88600
O381        O  0.46827932  0.08000675  0.68747734    -0.75900
C382        C  0.33301586  0.05686439  0.59998359     0.92200
O383        O  0.43270360  0.15634422  0.68196906    -0.75700
O384        O  0.35539876  0.08408275  0.59971609    -0.83200
Mg385      Mg  0.46242733  0.14209528  0.70163864     1.58000
C386        C  0.30950381  0.47145927  0.66446332     0.92100
O387        O  0.49293260  0.13400624  0.72522172    -0.81500
H388        H  0.41325819  0.00996283  0.68136916    -0.06800
C389        C  0.34304271  0.06984243  0.66465363     0.87100
O390        O  0.44872948  0.09407500  0.62582258    -0.76000
O391        O  0.42300999  0.09916292  0.71050849    -0.88800
O392        O  0.32359251  0.48289229  0.68220354    -0.81600
C393        C  0.36956159  0.01574829  0.74349204     0.92300
C394        C  0.49003656  0.11489322  0.73975884     0.92100
Mg395      Mg  0.36008417  0.03092552  0.63801989     1.58000
O396        O  0.32823016  0.03940225  0.61608119    -0.81500
O397        O  0.38998529  0.01665570  0.65722039    -0.75700
O398        O  0.39738077  0.03675574  0.74171935    -0.81600
O399        O  0.00548161  0.18598146  0.69197180    -0.83300
O400        O  0.42515625  0.13451980  0.59785109    -0.81600
C401        C  0.40012762  0.02046085  0.67648960     0.86600
O402        O  0.39945153  0.07365957  0.62945854    -0.88800
O403        O  0.35392914  0.05283247  0.66579807    -0.88900
O404        O  0.35367875  0.09223997  0.65169635    -0.75900
Mg405      Mg  0.43119783  0.06102878  0.71365044     1.58000
O406        O  0.35037991  0.00961535  0.72828918    -0.83300
H407        H  0.49768194  0.10683570  0.66425956    -0.07000
O408        O  0.42589193  0.13584538  0.64976042    -0.88600
H409        H  0.40895222  0.16267197  0.65796372    -0.06800
H410        H  0.41796585  0.05329647  0.61254384    -0.07000
C411        C  0.42206504  0.15213986  0.66282211     0.86500
C412        C  0.47902291  0.10269220  0.67481653     0.87100
C413        C  0.42165361  0.07287376  0.62202879     0.87200
H414        H  0.32437859  0.06587136  0.67514095    -0.07000
O415        O  0.37363177  0.07836297  0.71382482    -0.76000
Mg416      Mg  0.39111368  0.11116326  0.62563508     1.58000
H417        H  0.40400908  0.11913730  0.72731605    -0.07000
C418        C  0.01343848  0.20007708  0.67406766     0.92100
O419        O  0.47205936  0.16295033  0.61100467    -0.83300
C420        C  0.45257801  0.15613673  0.59589859     0.92200
O421        O  0.46820997  0.08738561  0.73904956    -0.83200
Mg422      Mg  0.35204277  0.03180473  0.69639425     1.58200
O423        O  0.49679856  0.18909839  0.65724196    -0.81600
O424        O  0.31836467  0.48623303  0.64685931    -0.83300
O425        O  0.35824398  0.30458935  0.66244087    -0.88900
C426        C  0.42598251  0.35914151  0.62037549     0.87200
Mg427      Mg  0.35213671  0.32079772  0.69306977     1.58100
O428        O  0.43618868  0.30361624  0.64728429    -0.88600
O429        O  0.36360866  0.26822731  0.64775014    -0.75900
C430        C  0.48760786  0.38600368  0.73846330     0.92200
O431        O  0.38769484  0.37734269  0.65477552    -0.75700
O432        O  0.46423570  0.38908010  0.73735866    -0.83200
Mg433      Mg  0.36291686  0.33291079  0.63503838     1.58000
C434        C  0.02282558  0.33196913  0.67382186     0.92100
O435        O  0.33538477  0.29183823  0.61281384    -0.81500
H436        H  0.42296950  0.26011223  0.65401235    -0.06800
C437        C  0.48068696  0.38951198  0.67383389     0.87100
O438        O  0.37714910  0.29997297  0.71098231    -0.76000
O439        O  0.40521716  0.33492749  0.62757504    -0.88800
O440        O  0.50878688  0.32934502  0.65612498    -0.81600
C441        C  0.46512288  0.31379921  0.59429516     0.92300
C442        C  0.34285723  0.28193784  0.59635467     0.92100
Mg443      Mg  0.46764414  0.33330412  0.69975537     1.58000
O444        O  0.49391395  0.37214727  0.72392305    -0.81500
O445        O  0.44253413  0.28943214  0.67927203    -0.75700
O446        O  0.43737436  0.30712540  0.59550768    -0.81600
O447        O  0.31846786  0.33086049  0.64256048    -0.83300
O448        O  0.39339978  0.36256143  0.73841260    -0.81600
C449        C  0.43364816  0.28346551  0.65973607     0.86600
O450        O  0.42561903  0.33240021  0.70726892    -0.88800
O451        O  0.47287474  0.36220974  0.67251605    -0.88900
O452        O  0.46684991  0.39875816  0.68605914    -0.75900
Mg453      Mg  0.40203459  0.29142806  0.62261862     1.58000
O454        O  0.48376197  0.32733559  0.60971231    -0.83300
H455        H  0.33198690  0.26079848  0.67065865    -0.07000
O456        O  0.39384271  0.36332013  0.68689480    -0.88600
H457        H  0.40653906  0.40668835  0.68009505    -0.06800
H458        H  0.41046497  0.29424987  0.72457087    -0.07000
C459        C  0.39618483  0.38334908  0.67438159     0.86500
C460        C  0.35031665  0.27728343  0.66070723     0.87100
C461        C  0.40487780  0.30851299  0.71485168     0.87200
H462        H  0.49918872  0.40579798  0.66390000    -0.07000
O463        O  0.45372083  0.36763309  0.62423054    -0.76000
Mg464      Mg  0.42862668  0.37645685  0.71120068     1.58000
H465        H  0.42040554  0.37370627  0.61100202    -0.07000
C466        C  0.30716758  0.33370845  0.66013699     0.92100
O467        O  0.34628369  0.33928192  0.72499586    -0.83300
C468        C  0.36509205  0.35349326  0.74024712     0.92200
O469        O  0.36737626  0.28090320  0.59601263    -0.83200
Mg470      Mg  0.47814382  0.34578117  0.64169603     1.58200
O471        O  0.31968120  0.33505961  0.67829041    -0.81600
O472        O  0.01281888  0.33547266  0.69183493    -0.83300
C473        C  0.31000430  0.39010968  0.85009346     0.01800
C474        C  0.31039527  0.41808693  0.85071691     0.01700
C475        C  0.31988904  0.43700015  0.83259613    -0.18800
C476        C  0.32990273  0.42892690  0.81384891     0.01800
C477        C  0.32892280  0.40032490  0.81308173     0.01700
C478        C  0.31887008  0.38130276  0.83130718    -0.18800
H479        H  0.31818155  0.35953440  0.83095928     0.03800
H480        H  0.32031857  0.45862869  0.83335072     0.03800
C481        C  0.00599837  0.23853275  0.48242859     0.01800
C482        C  0.00857340  0.26770214  0.48164029     0.01700
C483        C  0.00155263  0.27912400  0.50010693    -0.18800
C484        C  0.49291337  0.26266775  0.51948435     0.01800
C485        C  0.49168191  0.23411689  0.52048660     0.01700
C486        C  0.99788354  0.22227731  0.50187308    -0.18800
H487        H  0.99639312  0.20014594  0.50252997     0.03800
H488        H  0.00287326  0.30117321  0.49940169     0.03800
C489        C  0.23239532  0.24581260  0.48246883     0.01800
C490        C  0.25972092  0.27433393  0.48387849     0.01700
C491        C  0.27911514  0.28096036  0.50176235    -0.18800
C492        C  0.27132284  0.25997750  0.51858362     0.01800
C493        C  0.24381430  0.23176406  0.51749062     0.01700
C494        C  0.22472169  0.22471225  0.49934814    -0.18800
H495        H  0.20379210  0.20289115  0.49844184     0.03800
H496        H  0.30030145  0.30257096  0.50262775     0.03800
C497        C  0.26689911  0.49352051  0.48315754     0.01800
C498        C  0.23622051  0.48581347  0.47971394     0.01700
C499        C  0.22022177  0.49042454  0.49646858    -0.18800
C500        C  0.23413712  0.00254381  0.51655075     0.01800
C501        C  0.26512026  0.01123776  0.51972991     0.01700
C502        C  0.28110369  0.50656819  0.50298096    -0.18800
H503        H  0.30458876  0.51242905  0.50560671     0.03800
H504        H  0.19661022  0.48417009  0.49394421     0.03800
C505        C  0.99757174  0.02626407  0.00175314     0.01800
C506        C  0.02627317  0.02808977  0.00342377     0.01800
C507        C  0.02820111  0.50120314  0.00436282     0.01800
C508        C  0.00132926  0.47232304  0.00324733     0.01800
C509        C  0.47235913  0.47027754  0.00212910     0.01800
C510        C  0.47056805  0.49740829  0.00109400     0.01800
C511        C  0.36021911  0.16533913  0.32696771     0.01800
C512        C  0.36193596  0.19409730  0.32670285     0.01800
C513        C  0.33509647  0.19586575  0.32970956     0.01800
C514        C  0.30657868  0.16888895  0.33231705     0.01800
C515        C  0.30456805  0.14011086  0.33045775     0.01800
C516        C  0.33138498  0.13836963  0.32773015     0.01800
C517        C  0.13764481  0.33440784  0.66183294     0.01800
C518        C  0.16722471  0.36061695  0.66222868     0.01800
C519        C  0.19324348  0.35756452  0.65910020     0.01800
C520        C  0.18995796  0.32817811  0.65647533     0.01800
C521        C  0.16034490  0.30169219  0.65608223     0.01800
C522        C  0.13413814  0.30488798  0.65874377     0.01800
C523        C  0.05298589  0.33382517  0.67233032    -0.06600
C524        C  0.07053550  0.34781583  0.65382946    -0.17800
C525        C  0.09865124  0.34970890  0.65027010     0.10600
C526        C  0.11002129  0.33725636  0.66571472    -0.06600
C527        C  0.09319393  0.32460623  0.68476088    -0.17800
C528        C  0.06497350  0.32272017  0.68821290     0.10600
S529        S  0.11732784  0.36724033  0.62512747    -0.32800
S530        S  0.04439381  0.30384180  0.71226825    -0.32800
H531        H  0.04589542  0.33043995  0.72067911     0.28600
H532        H  0.13935323  0.35826503  0.62477659     0.28600
H533        H  0.06205258  0.35718794  0.64171013     0.19200
H534        H  0.10184081  0.31539239  0.69686079     0.19200
C535        C  0.27741323  0.33295185  0.65946488    -0.06600
C536        C  0.25933131  0.32149066  0.64067247    -0.17800
C537        C  0.23037272  0.31843659  0.63919476     0.10600
C538        C  0.21825287  0.32588636  0.65727001    -0.06600
C539        C  0.23544201  0.33537524  0.67648552    -0.17800
C540        C  0.26514099  0.34040847  0.67749559     0.10600
S541        S  0.21087812  0.30515404  0.61365744    -0.32800
S542        S  0.28646954  0.35851802  0.70173407    -0.32800
H543        H  0.31296282  0.37926010  0.69054863     0.28600
H544        H  0.19408304  0.32008391  0.61526428     0.28600
H545        H  0.26786064  0.31499082  0.62678545     0.19200
H546        H  0.22630645  0.34098773  0.69047559     0.19200
C547        C  0.35440825  0.36250742  0.75981588    -0.06600
C548        C  0.32998407  0.36811424  0.75752362    -0.17800
C549        C  0.32123534  0.38058670  0.77440025     0.10600
C550        C  0.33799939  0.38895637  0.79395755    -0.06600
C551        C  0.36193809  0.38273009  0.79649383    -0.17800
C552        C  0.36995611  0.36921319  0.77991367     0.10600
S553        S  0.28787590  0.38408293  0.77006755    -0.32800
S554        S  0.39924185  0.35992498  0.78587709    -0.32800
H555        H  0.38559660  0.33260908  0.77378311     0.28600
H556        H  0.27811168  0.37943147  0.79168739     0.28600
H557        H  0.31765531  0.36296926  0.74235756     0.19200
H558        H  0.37407926  0.38786105  0.81179856     0.19200
C559        C  0.29160907  0.26764697  0.53766294    -0.06600
C560        C  0.30627278  0.25071628  0.54128699    -0.17800
C561        C  0.32198189  0.25361079  0.56061687     0.10600
C562        C  0.32377067  0.27450251  0.57660856    -0.06600
C563        C  0.30944672  0.29176257  0.57268821    -0.17800
C564        C  0.29338390  0.28853762  0.55355453     0.10600
S565        S  0.33791246  0.22904799  0.56416733    -0.32800
S566        S  0.27551741  0.31158626  0.55069600    -0.32800
H567        H  0.25095067  0.29137882  0.53753782     0.28600
H568        H  0.33101645  0.22409977  0.58633908     0.28600
H569        H  0.30446750  0.23425425  0.52925036     0.19200
H570        H  0.31106855  0.30834748  0.58455821     0.19200
C571        C  0.48588864  0.27621931  0.53841751    -0.06600
C572        C  0.50388837  0.28307760  0.55713662    -0.17800
C573        C  0.49822338  0.29585243  0.57542688     0.10600
C574        C  0.47477997  0.30346920  0.57482343    -0.06600
C575        C  0.45743990  0.29738103  0.55573053    -0.17800
C576        C  0.46230786  0.28342814  0.53781243     0.10600
S577        S  0.52039979  0.29965343  0.59930222    -0.32800
S578        S  0.43674961  0.27429666  0.51503793    -0.32800
H579        H  0.43693583  0.24760119  0.50890121     0.28600
H580        H  0.49467878  0.28355520  0.61256388     0.28600
H581        H  0.02209665  0.27772710  0.55769956     0.19200
H582        H  0.43908829  0.30251681  0.55497487     0.19200
C583        C  0.28126614  0.44076300  0.66412316    -0.06600
C584        C  0.27114689  0.42545719  0.64413843    -0.17800
C585        C  0.24286537  0.39869443  0.64191288     0.10600
C586        C  0.22439268  0.38552819  0.66030780    -0.06600
C587        C  0.23493124  0.40002287  0.68045426    -0.17800
C588        C  0.26247898  0.42763636  0.68251019     0.10600
S589        S  0.23126071  0.38412852  0.61481868    -0.32800
S590        S  0.27061476  0.44582884  0.70870213    -0.32800
H591        H  0.27492713  0.47365634  0.70053433     0.28600
H592        H  0.19967641  0.36916264  0.61825689     0.28600
H593        H  0.28480563  0.43514831  0.62977927     0.19200
H594        H  0.22084298  0.39031895  0.69461792     0.19200
C595        C  0.10320908  0.27722923  0.66154464    -0.06600
C596        C  0.09737050  0.26146691  0.68119400    -0.17800
C597        C  0.06810711  0.23799204  0.68661750     0.10600
C598        C  0.04362303  0.22874213  0.67170778    -0.06600
C599        C  0.04955745  0.24484194  0.65212289    -0.17800
C600        C  0.07862788  0.26873957  0.64688006     0.10600
S601        S  0.06408979  0.22112116  0.71284438    -0.32800
S602        S  0.08187042  0.28634883  0.62093249    -0.32800
H603        H  0.11323223  0.30641380  0.62127859     0.28600
H604        H  0.04001056  0.22589739  0.71886382     0.28600
H605        H  0.11569181  0.26843097  0.69288266     0.19200
H606        H  0.03138510  0.23840593  0.64038948     0.19200
C607        C  0.34095925  0.45124311  0.79581315    -0.06600
C608        C  0.32049414  0.45930372  0.78677665    -0.17800
C609        C  0.32957373  0.48158302  0.77064451     0.10600
C610        C  0.35985493  0.99596806  0.76295765    -0.06600
C611        C  0.38064643  0.98873947  0.77260866    -0.17800
C612        C  0.37171959  0.46705107  0.78914651     0.10600
S613        S  0.30269388  0.49248447  0.76088864    -0.32800
S614        S  0.40095732  0.96154453  0.80144304    -0.32800
H615        H  0.38777361  0.45367880  0.82209150     0.28600
H616        H  0.27744528  0.47121230  0.77289081     0.28600
H617        H  0.29726648  0.44813584  0.79260887     0.19200
H618        H  0.40402785  0.99980294  0.76704947     0.19200
C619        C  0.31326960  0.04434096  0.58047887    -0.06600
C620        C  0.30620023  0.06328380  0.56811840    -0.17800
C621        C  0.29040644  0.05327867  0.54834268     0.10600
C622        C  0.28096827  0.02339701  0.54078695    -0.06600
C623        C  0.28773498  0.00443752  0.55321652    -0.17800
C624        C  0.30375289  0.01444651  0.57274986     0.10600
S625        S  0.28440069  0.08030477  0.53325030    -0.32800
S626        S  0.31313300  0.48846969  0.58603907    -0.32800
H627        H  0.34392674  0.51052676  0.58954798     0.28600
H628        H  0.28266457  0.06775032  0.51263568     0.28600
H629        H  0.31372309  0.08633929  0.57363295     0.19200
H630        H  0.28103662  0.48170537  0.54733468     0.19200
C631        C  0.46181375  0.17495251  0.57595830    -0.06600
C632        C  0.49210693  0.18798217  0.56884225    -0.17800
C633        C  0.00272551  0.20808828  0.55129191     0.10600
C634        C  0.48263759  0.21535177  0.54036188    -0.06600
C635        C  0.45258800  0.20281312  0.54757879    -0.17800
C636        C  0.44198117  0.18282182  0.56513232     0.10600
S637        S  0.04225456  0.22414908  0.54391604    -0.32800
S638        S  0.40352139  0.16987187  0.57375309    -0.32800
H639        H  0.39342411  0.13946673  0.56759273     0.28600
H640        H  0.04604132  0.25160592  0.53549049     0.28600
H641        H  0.00779361  0.18276973  0.57718510     0.19200
H642        H  0.43714223  0.20841430  0.53929765     0.19200
C643        C  0.03837266  0.40769081  0.79789561    -0.06600
C644        C  0.03101444  0.42880186  0.78904328    -0.17800
C645        C  0.01528663  0.42303557  0.76936023     0.10600
C646        C  0.00625083  0.39531464  0.75836282    -0.06600
C647        C  0.01258076  0.37377287  0.76766378    -0.17800
C648        C  0.02826804  0.37944377  0.78727075     0.10600
S649        S  0.00855105  0.45232066  0.75880568    -0.32800
S650        S  0.03451584  0.34954011  0.79748200    -0.32800
H651        H  0.06174406  0.36812693  0.80878631     0.28600
H652        H  0.01110167  0.44631376  0.73690790     0.28600
H653        H  0.03839789  0.45036525  0.79726031     0.19200
H654        H  0.50482760  0.35197597  0.75967352     0.19200
C655        C  0.05297509  0.15333766  0.79397247    -0.06600
C656        C  0.02666912  0.12460144  0.79596316    -0.17800
C657        C  0.50600655  0.11112830  0.77871396     0.10600
C658        C  0.01199782  0.12625070  0.75845053    -0.06600
C659        C  0.03865829  0.15500566  0.75662484    -0.17800
C660        C  0.05860562  0.16887939  0.77413101     0.10600
S661        S  0.47205065  0.07532348  0.78420689    -0.32800
S662        S  0.09025677  0.20689737  0.77030457    -0.32800
H663        H  0.09157964  0.21646785  0.79186370     0.28600
H664        H  0.45230647  0.08597713  0.77787519     0.28600
H665        H  0.02215354  0.11255913  0.81118989     0.19200
H666        H  0.04370471  0.16734885  0.74154571     0.19200
C667        C  0.15354815  0.21273408  0.65819369    -0.06600
C668        C  0.14270177  0.22093948  0.63998421    -0.17800
C669        C  0.14422585  0.24934031  0.63863719     0.10600
C670        C  0.15715625  0.27059534  0.65597848    -0.06600
C671        C  0.16728482  0.26205313  0.67437722    -0.17800
C672        C  0.16572637  0.23373009  0.67571311     0.10600
S673        S  0.13002794  0.25650817  0.61389741    -0.32800
S674        S  0.18195075  0.22706085  0.69960617    -0.32800
H675        H  0.15353909  0.20346032  0.70677251     0.28600
H676        H  0.14440945  0.28815204  0.61600286     0.28600
H677        H  0.13341003  0.20524067  0.62641755     0.19200
H678        H  0.17680937  0.27785384  0.68787281     0.19200
C679        C  0.17160551  0.39181785  0.66562925    -0.06600
C680        C  0.18393726  0.41268152  0.64857014    -0.17800
C681        C  0.18996435  0.44262282  0.65062700     0.10600
C682        C  0.18137594  0.45182435  0.66973861    -0.06600
C683        C  0.17045429  0.43145483  0.68726983    -0.17800
C684        C  0.16637272  0.40198492  0.68565487     0.10600
S685        S  0.20952296  0.46792938  0.62842229    -0.32800
S686        S  0.15514139  0.37916002  0.70988308    -0.32800
H687        H  0.16508538  0.35883373  0.70376353     0.28600
H688        H  0.22649423  0.49376617  0.64165217     0.28600
H689        H  0.18937767  0.40568753  0.63346872     0.19200
H690        H  0.16441951  0.43823677  0.70226188     0.19200
C691        C  0.11734551  0.49495919  0.75825468    -0.06600
C692        C  0.11219701  0.46497952  0.75816534    -0.17800
C693        C  0.10523133  0.44802045  0.77725221     0.10600
C694        C  0.10085232  0.46024795  0.79662279    -0.06600
C695        C  0.10714847  0.49048186  0.79694034    -0.17800
C696        C  0.11666836  0.00832366  0.77832677     0.10600
S697        S  0.10402568  0.41186424  0.77602003    -0.32800
S698        S  0.13034170  0.04848062  0.78200571    -0.32800
H699        H  0.15568098  0.05797577  0.76836385     0.28600
H700        H  0.11227818  0.41197240  0.79777904     0.28600
H701        H  0.11434718  0.45491420  0.74324592     0.19200
H702        H  0.10516237  0.50045102  0.81196697     0.19200
C703        C  0.13565571  0.13864373  0.75647948    -0.06600
C704        C  0.15321986  0.16812561  0.76503074    -0.17800
C705        C  0.14274523  0.17802064  0.78245721     0.10600
C706        C  0.11426322  0.15772768  0.79200602    -0.06600
C707        C  0.09672324  0.12830639  0.78334657    -0.17800
C708        C  0.10667222  0.11887477  0.76545075     0.10600
S709        S  0.16658306  0.21707366  0.79115410    -0.32800
S710        S  0.07976032  0.08294473  0.75317464    -0.32800
H711        H  0.09726512  0.06924007  0.75768982     0.28600
H712        H  0.14312700  0.22115931  0.79951162     0.32200
H713        H  0.17501286  0.18376059  0.75781187     0.19200
H714        H  0.07497050  0.11251805  0.79049910     0.19200
C715        C  0.21599001  0.00599461  0.53399538    -0.06600
C716        C  0.20879677  0.02929143  0.53224314    -0.17800
C717        C  0.19581132  0.03667324  0.54954544     0.10600
C718        C  0.19022033  0.02070644  0.56935630    -0.06600
C719        C  0.19494588  0.99556882  0.57027212    -0.17800
C720        C  0.20731063  0.98781887  0.55278559     0.10600
S721        S  0.18721447  0.06680195  0.54521300    -0.32800
S722        S  0.21180905  0.45479108  0.55565708    -0.32800
H723        H  0.21148785  0.44858915  0.53344449     0.28600
H724        H  0.16082715  0.05351986  0.55807098     0.28600
H725        H  0.21433611  0.04254710  0.51752169     0.19200
H726        H  0.19013686  0.98249622  0.58502072     0.19200
C727        C  0.23449491  0.21053705  0.53601887    -0.06600
C728        C  0.22827030  0.22028104  0.55560663    -0.17800
C729        C  0.22393063  0.20400572  0.57466935     0.10600
C730        C  0.22318265  0.17562533  0.57403088    -0.06600
C731        C  0.22916567  0.16572642  0.55426674    -0.17800
C732        C  0.23537231  0.18310957  0.53541158     0.10600
S733        S  0.22105139  0.22177404  0.59923530    -0.32800
S734        S  0.24417479  0.16898742  0.51124378    -0.32800
H735        H  0.26338905  0.19750810  0.50181320     0.28600
H736        H  0.23827360  0.21257165  0.61176435     0.28600
H737        H  0.22821983  0.24165225  0.55624514     0.19200
H738        H  0.22864040  0.14407104  0.55335912     0.19200
C739        C  0.49038275  0.10762973  0.99354060    -0.06600
C740        C  0.48618544  0.09388152  0.01400253    -0.17800
C741        C  0.48909915  0.06813701  0.01735237     0.10600
C742        C  0.49583830  0.05479792  0.99970371    -0.06600
C743        C  0.99993457  0.06811361  0.97921275    -0.17800
C744        C  0.99761446  0.09429413  0.97593306     0.10600
S745        S  0.48439908  0.05428519  0.04474845    -0.32800
S746        S  0.00485353  0.10945716  0.94896150    -0.32800
H747        H  0.03027448  0.13731182  0.95542574     0.28600
H748        H  0.49772792  0.03598993  0.04230603     0.28600
H749        H  0.48145140  0.10380064  0.02790200     0.19200
H750        H  0.00499925  0.05793515  0.96556378     0.19200
C751        C  0.01078691  0.39206681  0.00445390    -0.06600
C752        C  0.00091353  0.39986652  0.98543235    -0.17800
C753        C  0.49828316  0.42604854  0.98432143     0.10600
C754        C  0.00408569  0.44428218  0.00303816    -0.06600
C755        C  0.01512488  0.43719155  0.02172979    -0.17800
C756        C  0.01929466  0.41193558  0.02246233     0.10600
S757        S  0.48836288  0.43499968  0.95833389    -0.32800
S758        S  0.03689756  0.40730776  0.04641839    -0.32800
H759        H  0.05366786  0.39634336  0.03521032     0.28600
H760        H  0.49943829  0.46619981  0.96202783     0.28600
H761        H  0.49485055  0.38528069  0.97125245     0.19200
H762        H  0.02092549  0.45175458  0.03586413     0.19200
C763        C  0.03049937  0.34182407  0.90665370    -0.06600
C764        C  0.03425038  0.37119008  0.90971078    -0.17800
C765        C  0.04573833  0.39326953  0.89334836     0.10600
C766        C  0.05473045  0.38642983  0.87348996    -0.06600
C767        C  0.05040658  0.35704041  0.87020344    -0.17800
C768        C  0.03813754  0.33469803  0.88628401     0.10600
S769        S  0.04765499  0.42925557  0.89883492    -0.32800
S770        S  0.03188893  0.29737644  0.87932521    -0.32800
H771        H  0.00375383  0.28159578  0.89007588     0.28600
H772        H  0.04539429  0.43659427  0.87726157     0.28600
H773        H  0.02851440  0.37726278  0.92511750     0.19200
H774        H  0.05631720  0.35130888  0.85472508     0.19200
C775        C  0.07678180  0.19529610  0.86954141    -0.06600
C776        C  0.04928900  0.17505974  0.87971023    -0.17800
C777        C  0.03893964  0.18399209  0.89779077     0.10600
C778        C  0.05711619  0.21350994  0.90692353    -0.06600
C779        C  0.08439865  0.23396796  0.89653495    -0.17800
C780        C  0.09415481  0.22536341  0.87783121     0.10600
S781        S  0.50105288  0.15749537  0.90711928    -0.32800
S782        S  0.12749350  0.25366025  0.86381475    -0.32800
H783        H  0.13680597  0.27701905  0.87939095     0.28600
H784        H  0.49269712  0.17983926  0.91060128     0.28600
H785        H  0.03531616  0.15228840  0.87311670     0.19200
H786        H  0.09782534  0.25690434  0.90291876     0.19200
C787        C  0.10712141  0.11668463  0.00593589    -0.06600
C788        C  0.09800865  0.10014221  0.98632382    -0.17800
C789        C  0.07185526  0.07137251  0.98492221     0.10600
C790        C  0.05430926  0.05841948  0.00366142    -0.06600
C791        C  0.06275279  0.07512165  0.02305727    -0.17800
C792        C  0.08853857  0.10412174  0.02437897     0.10600
S793        S  0.06294147  0.05261475  0.95878338    -0.32800
S794        S  0.09576997  0.12382886  0.04995572    -0.32800
H795        H  0.10455739  0.15236475  0.04059810     0.28600
H796        H  0.03308705  0.02922706  0.96288688     0.28600
H797        H  0.11184248  0.10923425  0.97196755     0.19200
H798        H  0.04910973  0.06554447  0.03737455     0.19200
C799        C  0.39185993  0.38149512  0.99373939    -0.06600
C800        C  0.40877476  0.38874604  0.01312430    -0.17800
C801        C  0.43430501  0.41745724  0.01679257     0.10600
C802        C  0.44419791  0.43979360  0.00032292    -0.06600
C803        C  0.42767874  0.43255218  0.98084183    -0.17800
C804        C  0.40189619  0.40394542  0.97729718     0.10600
S805        S  0.45131517  0.42361521  0.04345180    -0.32800
S806        S  0.38244743  0.39857701  0.95180820    -0.32800
H807        H  0.38521540  0.37314298  0.94603245     0.28600
H808        H  0.47328393  0.45450803  0.04166448     0.28600
H809        H  0.40146027  0.37216076  0.02604499     0.19200
H810        H  0.43525857  0.44935665  0.96805339     0.19200
C811        C  0.28193318  0.33888983  0.90898549    -0.06600
C812        C  0.31301426  0.35528889  0.90347203    -0.17800
C813        C  0.32283374  0.37110181  0.88398544     0.10600
C814        C  0.30105520  0.37043212  0.86938020    -0.06600
C815        C  0.26999829  0.35338686  0.87443351    -0.17800
C816        C  0.26023127  0.33841315  0.89423531     0.10600
S817        S  0.36338984  0.39077423  0.87886296    -0.32800
S818        S  0.22003880  0.32056747  0.89991721    -0.32800
H819        H  0.22435345  0.33026838  0.92166258     0.28600
H820        H  0.36458106  0.40901422  0.86145712     0.28600
H821        H  0.32997114  0.35536204  0.91424640     0.19200
H822        H  0.25327736  0.35291175  0.86321425     0.19200
C823        C  0.13172478  0.18711399  0.86901534    -0.06600
C824        C  0.11770626  0.16768581  0.88662234    -0.17800
C825        C  0.13423805  0.16913410  0.90517442     0.10600
C826        C  0.16573513  0.19095611  0.90645069    -0.06600
C827        C  0.17994666  0.20930649  0.88833063    -0.17800
C828        C  0.16349739  0.20779319  0.86978087     0.10600
S829        S  0.11324896  0.14347550  0.92682163    -0.32800
S830        S  0.18479421  0.23379164  0.84824840    -0.32800
H831        H  0.16028259  0.23404368  0.83790542     0.28600
H832        H  0.13284560  0.13130029  0.92799753     0.28600
H833        H  0.09361065  0.15093747  0.88581131     0.19200
H834        H  0.20407464  0.22601578  0.88889669     0.19200
C835        C  0.38951592  0.00429299  0.99373532    -0.06600
C836        C  0.39511383  0.99365755  0.01322972    -0.17800
C837        C  0.42032925  0.48979537  0.01591431     0.10600
C838        C  0.44076513  0.99640799  0.99856234    -0.06600
C839        C  0.43447190  0.00570087  0.97870199    -0.17800
C840        C  0.40958961  0.01035515  0.97623095     0.10600
S841        S  0.42429654  0.47620260  0.04196401    -0.32800
S842        S  0.40590776  0.02573039  0.95088272    -0.32800
H843        H  0.39636012  0.04490952  0.96028005     0.28600
H844        H  0.45570607  0.48774734  0.04114348     0.28600
H845        H  0.37948944  0.48805319  0.02664763     0.19200
H846        H  0.44993741  0.01068135  0.96527014     0.19200
C847        C  0.11079230  0.49604181  0.00619919    -0.06600
C848        C  0.10137019  0.00524922  0.02476337    -0.17800
C849        C  0.07511811  0.00790721  0.02467084     0.10600
C850        C  0.05831271  0.50258777  0.00525357    -0.06600
C851        C  0.06770451  0.49357508  0.98671366    -0.17800
C852        C  0.09275184  0.48908413  0.98711889     0.10600
S853        S  0.06414323  0.01712920  0.05013084    -0.32800
S854        S  0.09894447  0.47276605  0.96299502    -0.32800
H855        H  0.10510150  0.45237522  0.97438400     0.28600
H856        H  0.03330897  0.00629402  0.04529299     0.28600
H857        H  0.11455586  0.01049705  0.03959113     0.19200
H858        H  0.05427200  0.48831834  0.97200806     0.19200
C859        C  0.16051679  0.47075960  0.90711913    -0.06600
C860        C  0.15475575  0.44358652  0.89664676    -0.17800
C861        C  0.13359700  0.43084326  0.87970676     0.10600
C862        C  0.11685383  0.44494435  0.87332121    -0.06600
C863        C  0.12304020  0.47244893  0.88330971    -0.17800
C864        C  0.14476541  0.48563595  0.89989632     0.10600
S865        S  0.12963126  0.39692019  0.86686779    -0.32800
S866        S  0.15209403  0.52198094  0.91040973    -0.32800
H867        H  0.18368612  0.03388628  0.91290621     0.28600
H868        H  0.11928220  0.40062130  0.84661761     0.28600
H869        H  0.16656285  0.43179397  0.90186452     0.19200
H870        H  0.11117752  0.48406934  0.87780065     0.19200
C871        C  0.30085167  0.42756953  0.87042403    -0.06600
C872        C  0.26955563  0.41526019  0.87394847    -0.17800
C873        C  0.25858526  0.41874028  0.89384858     0.10600
C874        C  0.27946994  0.43682634  0.91027321    -0.06600
C875        C  0.31086823  0.44911339  0.90657746    -0.17800
C876        C  0.32175006  0.44471517  0.88696496     0.10600
S877        S  0.21784217  0.39799825  0.89751420    -0.32800
S878        S  0.36252682  0.46150674  0.88443715    -0.32800
H879        H  0.36412622  0.46315238  0.86181265     0.28600
H880        H  0.21947469  0.39004218  0.91908571     0.28600
H881        H  0.25345608  0.40142954  0.86143406     0.19200
H882        H  0.32735450  0.46318362  0.91881141     0.19200
C883        C  0.42671628  0.30978327  0.12854522    -0.06600
C884        C  0.43251440  0.32585954  0.10904867    -0.17800
C885        C  0.43756857  0.31453548  0.08960923     0.10600
C886        C  0.43786213  0.28655435  0.08961414    -0.06600
C887        C  0.43144275  0.27025771  0.10918881    -0.17800
C888        C  0.42583067  0.28146952  0.12849326     0.10600
S889        S  0.94267451  0.33596695  0.06503834    -0.32800
S890        S  0.41731511  0.25933961  0.15299381    -0.32800
H891        H  0.41498708  0.23297100  0.14344856     0.28600
H892        H  0.93771162  0.35873001  0.07395140     0.28600
H893        H  0.43286113  0.34741676  0.10911146     0.19200
H894        H  0.43169819  0.24900635  0.10955967     0.19200
C895        C  0.37207207  0.31679540  0.12984709    -0.06600
C896        C  0.37429067  0.34097528  0.11745498    -0.17800
C897        C  0.35560838  0.33557660  0.09937765     0.10600
C898        C  0.33441279  0.30515087  0.09332282    -0.06600
C899        C  0.33176659  0.28110301  0.10630634    -0.17800
C900        C  0.35001989  0.28657171  0.12456051     0.10600
S901        S  0.35969033  0.36848129  0.08519030    -0.32800
S902        S  0.34411062  0.25386111  0.14005671    -0.32800
H903        H  0.35606947  0.26896827  0.15980682     0.28600
H904        H  0.32817258  0.35613144  0.08186526     0.28600
H905        H  0.39076043  0.36427379  0.12195660     0.19200
H906        H  0.31574993  0.25760030  0.10200170     0.19200
C907        C  0.32322857  0.04954482  0.32930119    -0.06600
C908        C  0.32465604  0.06348087  0.30929321    -0.17800
C909        C  0.32728302  0.09228289  0.30808763     0.10600
C910        C  0.32921322  0.10812528  0.32741356    -0.06600
C911        C  0.32710006  0.09419333  0.34732439    -0.17800
C912        C  0.32341410  0.06503255  0.34854686     0.10600
S913        S  0.32778946  0.10674970  0.28129525    -0.32800
S914        S  0.31847950  0.04915210  0.37522827    -0.32800
H915        H  0.34768301  0.05224509  0.37529198     0.28600
H916        H  0.33347664  0.13593596  0.28695608     0.28600
H917        H  0.32414936  0.05208191  0.29429561     0.19200
H918        H  0.32795819  0.10608877  0.36214911     0.19200
C919        C  0.33724081  0.22610369  0.33149355    -0.06600
C920        C  0.34177926  0.23935468  0.35210370    -0.17800
C921        C  0.34697728  0.26900086  0.35490804     0.10600
C922        C  0.34489790  0.28510675  0.33693233    -0.06600
C923        C  0.34050047  0.27168373  0.31622538    -0.17800
C924        C  0.33705751  0.24271921  0.31325678     0.10600
S925        S  0.35834106  0.28543874  0.38150604    -0.32800
S926        S  0.33231902  0.22878035  0.28574531    -0.32800
H927        H  0.32406686  0.19847570  0.29005926     0.28600
H928        H  0.38016716  0.31447621  0.37394619     0.28600
H929        H  0.34277777  0.22700685  0.36607409     0.19200
H930        H  0.33903819  0.28351962  0.30208920     0.19200
C931        C  0.31148833  0.47480519  0.43098134    -0.06600
C932        C  0.28985119  0.45089807  0.44390473    -0.17800
C933        C  0.27650795  0.45653120  0.46177416     0.10600
C934        C  0.28396118  0.48672944  0.46666283    -0.06600
C935        C  0.30738566  0.51082972  0.45508704    -0.17800
C936        C  0.32152708  0.50524681  0.43755946     0.10600
S937        S  0.24989687  0.42407361  0.47748158    -0.32800
S938        S  0.35248463  0.03787910  0.42469943    -0.32800
H939        H  0.36934588  0.02327334  0.42031056     0.28600
H940        H  0.25375144  0.43996622  0.49699884     0.28600
H941        H  0.28232584  0.42737216  0.43969922     0.19200
H942        H  0.31423531  0.03415887  0.45945268     0.19200
C943        C  0.28353909  0.32834049  0.42643789    -0.06600
C944        C  0.26010684  0.32633883  0.43966559    -0.17800
C945        C  0.25331849  0.31095741  0.45942935     0.10600
C946        C  0.26959324  0.29631571  0.46583181    -0.06600
C947        C  0.29377057  0.29939608  0.45313765    -0.17800
C948        C  0.30123063  0.31557478  0.43379260     0.10600
S949        S  0.22404296  0.31119010  0.47578659    -0.32800
S950        S  0.33456798  0.32029403  0.42000756    -0.32800
H951        H  0.34631805  0.35149301  0.41570956     0.28600
H952        H  0.23473440  0.30665533  0.49566091     0.28600
H953        H  0.24714989  0.33704611  0.43466978     0.19200
H954        H  0.30657122  0.28852647  0.45816181     0.19200
C955        C  0.36684257  0.36393602  0.24183051    -0.06600
C956        C  0.35195537  0.33393088  0.23384621    -0.17800
C957        C  0.36353415  0.32574473  0.21616573     0.10600
C958        C  0.39024056  0.34816468  0.20582455    -0.06600
C959        C  0.40526937  0.37807946  0.21384498    -0.17800
C960        C  0.39438917  0.38601528  0.23202570     0.10600
S961        S  0.34347865  0.28623186  0.20778789    -0.32800
S962        S  0.41788212  0.42411448  0.24263867    -0.32800
H963        H  0.41432244  0.41499519  0.26443184     0.28600
H964        H  0.36939663  0.28540236  0.20067230     0.28600
H965        H  0.33133584  0.31667216  0.24156158     0.19200
H966        H  0.42596913  0.39520137  0.20612733     0.19200
C967        C  0.21732108  0.05733506  0.33816348    -0.06600
C968        C  0.22576616  0.07211449  0.31795101    -0.17800
C969        C  0.25368900  0.09889163  0.31484704     0.10600
C970        C  0.27428616  0.11167276  0.33238934    -0.06600
C971        C  0.26570124  0.09768749  0.35269589    -0.17800
C972        C  0.23756720  0.07119112  0.35591606     0.10600
S973        S  0.26122301  0.11448904  0.28782451    -0.32800
S974        S  0.22954781  0.05657466  0.38308728    -0.32800
H975        H  0.20078930  0.05450335  0.38350088     0.28600
H976        H  0.28947692  0.14068032  0.29153757     0.28600
H977        H  0.21078099  0.06236910  0.30407293     0.19200
H978        H  0.28114061  0.10765839  0.36630462     0.19200
C979        C  0.39238371  0.22242402  0.32508501    -0.06600
C980        C  0.40476611  0.23979875  0.34392375    -0.17800
C981        C  0.43317451  0.26638125  0.34392687     0.10600
C982        C  0.45163355  0.27450596  0.32520308    -0.06600
C983        C  0.43933267  0.25706865  0.30627399    -0.17800
C984        C  0.40977027  0.23169304  0.30580189     0.10600
S985        S  0.44269189  0.29033052  0.36763666    -0.32800
S986        S  0.39601119  0.21330399  0.27982628    -0.32800
H987        H  0.36638640  0.19159210  0.28586129     0.28600
H988        H  0.45344989  0.31758562  0.35590389     0.28600
H989        H  0.39177936  0.23301088  0.35876043     0.19200
H990        H  0.45265387  0.26359063  0.29154901     0.19200
C991        C  0.03207089  0.32213740  0.42367946    -0.06600
C992        C  0.04918165  0.33425241  0.44277808    -0.17800
C993        C  0.04289285  0.31664916  0.46148845     0.10600
C994        C  0.01783972  0.28653061  0.46172151    -0.06600
C995        C  0.00044127  0.27453367  0.44283045    -0.17800
C996        C  0.00797658  0.29135865  0.42369621     0.10600
S997        S  0.06842086  0.33365297  0.48422755    -0.32800
S998        S  0.98757101  0.27098530  0.39971102    -0.32800
H999        H  0.01390884  0.28190047  0.38693312     0.28600
H1000       H  0.06588446  0.30628874  0.49179811     0.28600
H1001       H  0.06824022  0.35741917  0.44300940     0.19200
H1002       H  0.98120634  0.25151308  0.44279459     0.19200
C1003       C  0.22008566  0.47259968  0.45889974    -0.06600
C1004       C  0.19673335  0.44199098  0.45848230    -0.17800
C1005       C  0.17977332  0.42840345  0.43963541     0.10600
C1006       C  0.18530864  0.44615094  0.42062600    -0.06600
C1007       C  0.20985128  0.47647531  0.42094622    -0.17800
C1008       C  0.22683541  0.48992511  0.43977294     0.10600
S1009       S  0.15123261  0.38860649  0.44143585    -0.32800
S1010       S  0.25525992  0.02989456  0.43848714    -0.32800
H1011       H  0.25362425  0.03691502  0.46027484     0.28600
H1012       H  0.16023280  0.38074848  0.42205924     0.28600
H1013       H  0.19162626  0.42851937  0.47307397     0.19200
H1014       H  0.21490805  0.49062970  0.40673194     0.19200
C1015       C  0.45156356  0.35342562  0.20457674    -0.06600
C1016       C  0.44135111  0.33969056  0.22486373    -0.17800
C1017       C  0.45873553  0.35227963  0.24368865     0.10600
C1018       C  0.48837429  0.37825237  0.24231266    -0.06600
C1019       C  0.49877386  0.39167780  0.22191228    -0.17800
C1020       C  0.48060797  0.37999842  0.20325755     0.10600
S1021       S  0.44090864  0.33480599  0.26896564    -0.32800
S1022       S  0.49566732  0.40044546  0.17834930    -0.32800
H1023       H  0.46770688  0.39628881  0.17058759     0.28600
H1024       H  0.45335760  0.36256314  0.28048121     0.28600
H1025       H  0.41897815  0.31956417  0.22618934     0.19200
H1026       H  0.02141793  0.41135757  0.22037909     0.19200
C1027       C  0.44268801  0.11805305  0.12773756    -0.06600
C1028       C  0.44380965  0.10664646  0.10727872    -0.17800
C1029       C  0.45266765  0.12522397  0.08894009     0.10600
C1030       C  0.46308001  0.15687794  0.09101116    -0.06600
C1031       C  0.46222832  0.16840913  0.11154636    -0.17800
C1032       C  0.45176515  0.14941772  0.12976398     0.10600
S1033       S  0.44743385  0.10627518  0.06326278    -0.32800
S1034       S  0.44990683  0.16671541  0.15489844    -0.32800
H1035       H  0.42570532  0.14033984  0.16398358     0.28600
H1036       H  0.43518585  0.12243439  0.05278843     0.28600
H1037       H  0.43698512  0.08275288  0.10543346     0.19200
H1038       H  0.46931152  0.19237066  0.11338129     0.19200
C1039       C  0.38246014  0.05836044  0.12849947    -0.06600
C1040       C  0.37803397  0.03203339  0.11758704    -0.17800
C1041       C  0.35822972  0.02006897  0.09976748     0.10600
C1042       C  0.34250800  0.03490514  0.09232025    -0.06600
C1043       C  0.34660398  0.06093971  0.10364008    -0.17800
C1044       C  0.36596423  0.07251038  0.12166346     0.10600
S1045       S  0.35366535  0.48553029  0.08771764    -0.32800
S1046       S  0.36837542  0.10521005  0.13526308    -0.32800
H1047       H  0.37288109  0.09702690  0.15608505     0.28600
H1048       H  0.32207704  0.47239599  0.08428798     0.28600
H1049       H  0.39017022  0.02068706  0.12304654     0.19200
H1050       H  0.33492504  0.07276870  0.09826051     0.19200
C1051       C  0.39026762  0.00879195  0.24339368    -0.06600
C1052       C  0.38935653  0.99425339  0.22373019    -0.17800
C1053       C  0.39651390  0.00984839  0.20407673     0.10600
C1054       C  0.40436627  0.04086641  0.20382640    -0.06600
C1055       C  0.40427172  0.05513363  0.22338315    -0.17800
C1056       C  0.39835654  0.03985434  0.24314401     0.10600
S1057       S  0.39522585  0.98855411  0.18016885    -0.32800
S1058       S  0.40323628  0.06177669  0.26740337    -0.32800
H1059       H  0.41551949  0.04712244  0.27974873     0.28600
H1060       H  0.41746524  0.01312685  0.16823186     0.28600
H1061       H  0.38270745  0.47028680  0.22358467     0.19200
H1062       H  0.41002608  0.07883883  0.22334040     0.19200
C1063       C  0.19914793  0.12856321  0.13231185    -0.06600
C1064       C  0.22992884  0.14417747  0.12633037    -0.17800
C1065       C  0.23907743  0.15825351  0.10620594     0.10600
C1066       C  0.21721549  0.15861055  0.09208307    -0.06600
C1067       C  0.18647474  0.14381866  0.09849493    -0.17800
C1068       C  0.17714347  0.12866946  0.11829610     0.10600
S1069       S  0.27859502  0.17360396  0.09919084    -0.32800
S1070       S  0.13696757  0.11064342  0.12448718    -0.32800
H1071       H  0.13576082  0.09145160  0.14122199     0.28600
H1072       H  0.27246708  0.16394185  0.07745564     0.28600
H1073       H  0.24682270  0.14398483  0.13702896     0.19200
H1074       H  0.16948278  0.14443469  0.08814368     0.19200
C1075       C  0.20128689  0.07245140  0.13122594    -0.06600
C1076       C  0.23232002  0.08273399  0.12828450    -0.17800
C1077       C  0.24349137  0.07917534  0.10838954     0.10600
C1078       C  0.22275844  0.06398267  0.09104494    -0.06600
C1079       C  0.19157364  0.05363856  0.09430568    -0.17800
C1080       C  0.18066198  0.05738495  0.11411613     0.10600
S1081       S  0.28424931  0.09508141  0.10565981    -0.32800
S1082       S  0.14009073  0.04212040  0.11640875    -0.32800
H1083       H  0.13827015  0.03839004  0.13895159     0.28600
H1084       H  0.29286076  0.10913333  0.12613676     0.28600
H1085       H  0.24793106  0.09461807  0.14150527     0.19200
H1086       H  0.17515858  0.04158448  0.08152213     0.19200
C1087       C  0.16505359  0.04973858  0.20680167    -0.06600
C1088       C  0.13958857  0.02054659  0.20371615    -0.17800
C1089       C  0.12975414  0.49833406  0.21989568     0.10600
C1090       C  0.14490663  0.50568060  0.24017662    -0.06600
C1091       C  0.17086830  0.03478589  0.24297546    -0.17800
C1092       C  0.18143619  0.05646164  0.22644892     0.10600
S1093       S  0.09863363  0.46089258  0.21319112    -0.32800
S1094       S  0.21643089  0.09173922  0.23126404    -0.32800
H1095       H  0.22679787  0.09525195  0.20981675     0.28600
H1096       H  0.11109381  0.44525223  0.22412636     0.28600
H1097       H  0.12754126  0.01486126  0.18835695     0.19200
H1098       H  0.18310866  0.04093446  0.25825907     0.19200
C1099       C  0.27822169  0.17015839  0.33621812    -0.06600
C1100       C  0.26319518  0.17327326  0.31825375    -0.17800
C1101       C  0.23420480  0.16985146  0.31995449     0.10600
C1102       C  0.21876428  0.16172685  0.34006403    -0.06600
C1103       C  0.23445868  0.16006123  0.35835372    -0.17800
C1104       C  0.26408143  0.16455275  0.35672788     0.10600
S1105       S  0.21917175  0.17771217  0.29588967    -0.32800
S1106       S  0.28217884  0.16270425  0.38146978    -0.32800
H1107       H  0.31134244  0.17215424  0.37328178     0.28600
H1108       H  0.20886925  0.19530813  0.30679034     0.28600
H1109       H  0.27395335  0.17804276  0.30256739     0.19200
H1110       H  0.22352415  0.15502231  0.37403172     0.19200
C1111       C  0.38902502  0.16405411  0.32772083    -0.06600
C1112       C  0.40067424  0.15979080  0.30838357    -0.17800
C1113       C  0.42997536  0.16366208  0.30724600     0.10600
C1114       C  0.44820601  0.17060237  0.32626216    -0.06600
C1115       C  0.43606447  0.17438085  0.34578256    -0.17800
C1116       C  0.40692238  0.17115132  0.34673281     0.10600
S1117       S  0.44242464  0.16029931  0.28068479    -0.32800
S1118       S  0.39417493  0.17649874  0.37280664    -0.32800
H1119       H  0.36286860  0.16204326  0.36816177     0.28600
H1120       H  0.46968458  0.18854045  0.28222666     0.28600
H1121       H  0.38742564  0.15488584  0.29369166     0.19200
H1122       H  0.44912002  0.17944289  0.36064379     0.19200
C1123       C  0.02998157  0.20031006  0.42850763    -0.06600
C1124       C  0.99915361  0.18879625  0.43383436    -0.17800
C1125       C  0.99059100  0.20055734  0.45135039     0.10600
C1126       C  0.01325534  0.22513470  0.46360107    -0.06600
C1127       C  0.04391211  0.23640761  0.45863736    -0.17800
C1128       C  0.05257897  0.22401222  0.44172126     0.10600
S1129       S  0.45037393  0.18319792  0.45704695    -0.32800
S1130       S  0.09296980  0.24010623  0.43804153    -0.32800
H1131       H  0.09127536  0.21190471  0.44192285     0.28600
H1132       H  0.45131488  0.20795975  0.46808302     0.28600
H1133       H  0.98147989  0.17057994  0.42419287     0.19200
H1134       H  0.06134860  0.25477897  0.46835368     0.19200
C1135       C  0.17836284  0.22717420  0.42442016    -0.06600
C1136       C  0.16556594  0.22665538  0.44468868    -0.17800
C1137       C  0.18228604  0.23223377  0.46389213     0.10600
C1138       C  0.21247891  0.23768066  0.46301000    -0.06600
C1139       C  0.22501512  0.23750499  0.44280190    -0.17800
C1140       C  0.20892191  0.23369406  0.42358027     0.10600
S1141       S  0.16340815  0.23170092  0.48877705    -0.32800
S1142       S  0.22921544  0.23876446  0.39860074    -0.32800
H1143       H  0.21425117  0.25174510  0.38741530     0.28600
H1144       H  0.18956691  0.25205290  0.50054698     0.28600
H1145       H  0.14205106  0.22111762  0.44569546     0.19200
H1146       H  0.24804307  0.24140286  0.44193969     0.19200
C1147       C  0.46556956  0.09469814  0.20155188    -0.06600
C1148       C  0.47178461  0.12093419  0.21327840    -0.17800
C1149       C  0.48691901  0.12753013  0.23322802     0.10600
C1150       C  0.49426953  0.10643658  0.24253062    -0.06600
C1151       C  0.48959270  0.08109079  0.23021336    -0.17800
C1152       C  0.47629801  0.07561167  0.20959183     0.10600
S1153       S  0.99835894  0.16435294  0.24503392    -0.32800
S1154       S  0.47452656  0.04455085  0.19409651    -0.32800
H1155       H  0.47357970  0.05633524  0.17371368     0.28600
H1156       H  0.02724409  0.16994762  0.25187133     0.28600
H1157       H  0.46454719  0.13624975  0.20691495     0.19200
H1158       H  0.49688214  0.06578538  0.23650636     0.19200
C1159       C  0.16316145  0.10876805  0.20856590    -0.06600
C1160       C  0.13323990  0.08971112  0.21571180    -0.17800
C1161       C  0.12143546  0.09782509  0.23334327     0.10600
C1162       C  0.13960338  0.12620966  0.24397519    -0.06600
C1163       C  0.16940784  0.14546668  0.23662447    -0.17800
C1164       C  0.18137167  0.13720210  0.21914048     0.10600
S1165       S  0.08359831  0.07012709  0.24203703    -0.32800
S1166       S  0.22011609  0.16410452  0.21149572    -0.32800
H1167       H  0.22690903  0.14323362  0.20160751     0.28600
H1168       H  0.09116182  0.07341260  0.26418818     0.28600
H1169       H  0.11893975  0.06812359  0.20753906     0.19200
H1170       H  0.18365148  0.16715097  0.24469500     0.19200
O1171       O  0.02438767  0.63650493  0.33054238    -0.88900
C1172       C  0.09460029  0.68593430  0.28787938     0.87200
Mg1173     Mg  0.02077548  0.65576311  0.36099700     1.58100
O1174       O  0.09983989  0.62885144  0.31693333    -0.88600
O1175       O  0.02749594  0.59805943  0.31726933    -0.75900
C1176       C  0.15784788  0.71587627  0.40532295     0.92200
O1177       O  0.05878478  0.70896226  0.32172754    -0.75700
O1178       O  0.13457814  0.71914153  0.40457768    -0.83200
Mg1179     Mg  0.03159775  0.66437317  0.30234926     1.58000
C1180       C  0.18740509  0.65683232  0.34241101     0.92100
O1181       O  0.00282826  0.62433732  0.27899420    -0.81500
H1182       H  0.08478256  0.58524296  0.32472563    -0.06800
C1183       C  0.14903056  0.71561896  0.34098615     0.87100
O1184       O  0.04362739  0.63251054  0.37913503    -0.76000
O1185       O  0.07263590  0.66281852  0.29538603    -0.88800
O1186       O  0.16932015  0.64720101  0.32627727    -0.81600
C1187       C  0.12902636  0.63525696  0.26354634     0.92300
C1188       C  0.01032798  0.61262963  0.26358323     0.92100
Mg1189     Mg  0.13418686  0.66062326  0.36836400     1.58000
O1190       O  0.16260845  0.70064118  0.39104200    -0.81500
O1191       O  0.10698038  0.61564040  0.34905866    -0.75700
O1192       O  0.10132813  0.62874199  0.26483514    -0.81600
O1193       O  0.48816161  0.66499787  0.30996315    -0.83300
O1194       O  0.06451350  0.69381645  0.40602160    -0.81600
C1195       C  0.09674613  0.60893023  0.32983209     0.86600
O1196       O  0.09292168  0.66162790  0.37549525    -0.88800
O1197       O  0.13953267  0.68789596  0.34045440    -0.88900
O1198       O  0.13670769  0.72682102  0.35294845    -0.75900
Mg1199     Mg  0.06622239  0.61748240  0.29207634     1.58000
O1200       O  0.14771980  0.64829919  0.27901396    -0.83300
H1201       H  0.99623683  0.59348152  0.33968291    -0.07000
O1202       O  0.06422801  0.69530689  0.35414629    -0.88600
H1203       H  0.07979663  0.73898691  0.34640261    -0.06800
H1204       H  0.07458426  0.62305146  0.39262270    -0.07000
C1205       C  0.06790748  0.71537271  0.34119037     0.86500
C1206       C  0.01507128  0.60883290  0.32957477     0.87100
C1207       C  0.07078752  0.63859372  0.38292744     0.87200
H1208       H  0.16773073  0.73056123  0.33064321    -0.07000
O1209       O  0.12184161  0.69258057  0.29195926    -0.76000
Mg1210     Mg  0.09878546  0.70688762  0.37850502     1.58000
H1211       H  0.09055113  0.70114854  0.27800096    -0.07000
C1212       C  0.47774744  0.67041395  0.32705494     0.92100
O1213       O  0.01801215  0.67743779  0.39305997    -0.83300
C1214       C  0.03771273  0.68948147  0.40821939     0.92200
O1215       O  0.03267638  0.60802947  0.26521571    -0.83200
Mg1216     Mg  0.14335757  0.66854714  0.31049856     1.58200
O1217       O  0.99103561  0.67378971  0.34531345    -0.81600
O1218       O  0.17924606  0.66310090  0.36022367    -0.83300
C1219       C  0.17478856  0.57156429  0.18853748     0.01800
C1220       C  0.17385864  0.59920121  0.18925192     0.01700
C1221       C  0.18178253  0.61752166  0.17065769    -0.18800
C1222       C  0.19072446  0.60901219  0.15168914     0.01800
C1223       C  0.19196861  0.58182704  0.15115148     0.01700
C1224       C  0.18427420  0.56353277  0.16953942    -0.18800
H1225       H  0.18517439  0.54257474  0.16893060     0.03800
H1226       H  0.18058669  0.63832137  0.17083121     0.03800
C1227       C  0.41484534  0.55965548  0.18388438     0.01800
C1228       C  0.44425205  0.58573200  0.18282764     0.01700
C1229       C  0.45267935  0.60423857  0.16437774    -0.18800
C1230       C  0.43266559  0.59697739  0.14663976     0.01800
C1231       C  0.40387518  0.56966352  0.14723187     0.01700
C1232       C  0.39516445  0.55182578  0.16602746    -0.18800
H1233       H  0.37274748  0.53160020  0.16676457     0.03800
H1234       H  0.47506448  0.62451754  0.16383101     0.03800
O1235       O  0.14398972  0.94472291  0.33674469    -0.88900
C1236       C  0.07602188  0.92575408  0.37954871     0.87200
Mg1237     Mg  0.14734214  0.96661029  0.30648078     1.58100
O1238       O  0.06978718  0.86276518  0.35052885    -0.88600
O1239       O  0.14230763  0.90381368  0.34958905    -0.75900
C1240       C  0.01031333  0.88902028  0.26086950     0.92200
O1241       O  0.10978567  0.98255144  0.34516707    -0.75700
O1242       O  0.03319440  0.91605972  0.26108925    -0.83200
Mg1243     Mg  0.13823346  0.96665550  0.36466650     1.58000
C1244       C  0.48234687  0.80224212  0.32456798     0.92100
O1245       O  0.16799414  0.95600857  0.38732658    -0.81500
H1246       H  0.08520690  0.83460041  0.34251203    -0.06800
C1247       C  0.01960360  0.89914398  0.32533944     0.87100
O1248       O  0.12546746  0.92071277  0.28833577    -0.76000
O1249       O  0.09799659  0.92429979  0.37237872    -0.88800
O1250       O  0.99801356  0.81175566  0.34191889    -0.81600
C1251       C  0.04174687  0.84121893  0.40386409     0.92300
C1252       C  0.16372180  0.93626393  0.40174970     0.92100
Mg1253     Mg  0.03582918  0.85963229  0.29854195     1.58000
O1254       O  0.00691365  0.86977522  0.27534735    -0.81500
O1255       O  0.06345700  0.84298159  0.31813725    -0.75700
O1256       O  0.06967299  0.86180413  0.40219675    -0.81600
O1257       O  0.18113088  0.51139393  0.35657258    -0.83300
O1258       O  0.10497465  0.96544737  0.26060178    -0.81600
C1259       C  0.07316657  0.84617650  0.33747949     0.86600
O1260       O  0.07623393  0.90185789  0.29057702    -0.88800
O1261       O  0.03007099  0.88180122  0.32642949    -0.88900
O1262       O  0.03111560  0.92201949  0.31284611    -0.75900
Mg1263     Mg  0.10434464  0.88527951  0.37502285     1.58000
O1264       O  0.02263641  0.83601026  0.38876203    -0.83300
H1265       H  0.17298091  0.93110074  0.32716559    -0.07000
O1266       O  0.10375735  0.96337154  0.31250733    -0.88600
H1267       H  0.08746783  0.99064421  0.32103965    -0.06800
H1268       H  0.09445302  0.88108454  0.27382946    -0.07000
C1269       C  0.09996463  0.97943439  0.32583199     0.86500
C1270       C  0.15412279  0.92706751  0.33746383     0.87100
C1271       C  0.09833332  0.90046661  0.28362725     0.87200
H1272       H  0.00061294  0.89508308  0.33551472    -0.07000
O1273       O  0.04878786  0.90555052  0.37503496    -0.76000
Mg1274     Mg  0.06947663  0.94084674  0.28755457     1.58000
H1275       H  0.08009936  0.94517025  0.38938546    -0.07000
C1276       C  0.18943547  0.52630302  0.33900873     0.92100
O1277       O  0.15153985  0.99000341  0.27487765    -0.83300
C1278       C  0.13322644  0.98534940  0.25934629     0.92200
O1279       O  0.14044742  0.90964255  0.40106145    -0.83200
Mg1280     Mg  0.02644320  0.85963366  0.35690531     1.58200
O1281       O  0.17535864  0.51448249  0.32134376    -0.81600
O1282       O  0.49187063  0.81664232  0.30688872    -0.83300
O1283       O  0.30838011  0.85963232  0.33971711    -0.88900
C1284       C  0.36439185  0.93051453  0.37989560     0.87200
Mg1285     Mg  0.32443612  0.85554061  0.30847922     1.58100
O1286       O  0.30484428  0.93707863  0.35586233    -0.88600
O1287       O  0.27240092  0.86481686  0.35514819    -0.75900
C1288       C  0.37970812  0.98974255  0.26307412     0.92200
O1289       O  0.38205633  0.89245468  0.34470028    -0.75700
O1290       O  0.38373106  0.96698628  0.26429739    -0.83200
Mg1291     Mg  0.33944262  0.86641280  0.36587995     1.58000
C1292       C  0.32479675  0.52092156  0.32927423     0.92100
O1293       O  0.30132730  0.83867296  0.39018171    -0.81500
H1294       H  0.26037453  0.92155898  0.35122647    -0.06800
C1295       C  0.38766318  0.98470648  0.32720557     0.87100
O1296       O  0.29915034  0.87737856  0.29204195    -0.76000
O1297       O  0.34017353  0.90842442  0.37362660    -0.88800
O1298       O  0.32509708  0.00863560  0.34714653    -0.81600
C1299       C  0.31962675  0.96647167  0.40985031     0.92300
C1300       C  0.29106604  0.84633415  0.40634276     0.92100
Mg1301     Mg  0.32842888  0.96746496  0.30299454     1.58000
O1302       O  0.36484282  0.99502004  0.27737567    -0.81500
O1303       O  0.28667637  0.94119954  0.32483156    -0.75700
O1304       O  0.31461966  0.93934622  0.40748138    -0.81600
O1305       O  0.33828485  0.82208525  0.35711348    -0.83300
O1306       O  0.35667042  0.89725206  0.26252072    -0.81600
C1307       C  0.28307552  0.93302746  0.34447749     0.86600
O1308       O  0.32932432  0.92664024  0.29544807    -0.88800
O1309       O  0.36024173  0.97589602  0.32920184    -0.88900
O1310       O  0.39697965  0.97111120  0.31477301    -0.75900
Mg1311     Mg  0.29646476  0.90381062  0.38012789     1.58000
O1312       O  0.32866614  0.98507054  0.39411171    -0.83300
H1313       H  0.26428967  0.83261503  0.33229984    -0.07000
O1314       O  0.36435427  0.89885416  0.31422218    -0.88600
H1315       H  0.40863738  0.91310220  0.31857276    -0.06800
H1316       H  0.28944227  0.90873579  0.27971219    -0.07000
C1317       C  0.38594562  0.90183340  0.32533627     0.86500
C1318       C  0.28110355  0.85135817  0.34201149     0.87100
C1319       C  0.30549963  0.90466020  0.28855513     0.87200
H1320       H  0.40404759  0.00382980  0.33683451    -0.07000
O1321       O  0.37055477  0.95778107  0.37646159    -0.76000
Mg1322     Mg  0.37379241  0.93228429  0.28993744     1.58000
H1323       H  0.38088216  0.92656246  0.38823046    -0.07000
C1324       C  0.34365652  0.81381764  0.33897585     0.92100
O1325       O  0.34361915  0.85203521  0.27639675    -0.83300
C1326       C  0.35464417  0.87125647  0.26116061     0.92200
O1327       O  0.28846432  0.86997345  0.40611636    -0.83200
Mg1328     Mg  0.34534933  0.98039756  0.36077164     1.58200
O1329       O  0.34574462  0.82841426  0.32175347    -0.81600
O1330       O  0.32788056  0.51045507  0.31130860    -0.83300
C1331       C  0.40204507  0.84098696  0.18614726     0.01800
C1332       C  0.43025162  0.84148486  0.18564655     0.01700
C1333       C  0.43808571  0.83108346  0.16675834    -0.18800
C1334       C  0.41896181  0.82175549  0.14827216     0.01800
C1335       C  0.39236445  0.82418287  0.14869768     0.01700
C1336       C  0.38410712  0.83337930  0.16752126    -0.18800
H1337       H  0.36308505  0.83415273  0.16777893     0.03800
H1338       H  0.45912066  0.83041100  0.16640998     0.03800
O1339       O  0.22185472  0.53042875  0.00452342    -0.88900
C1340       C  0.23924760  0.97875690  0.04708591     0.87200
Mg1341     Mg  0.19987325  0.51339240  0.97386944     1.58100
O1342       O  0.30299477  0.53438873  0.01820252    -0.88600
O1343       O  0.26393142  0.56804127  0.01782904    -0.75900
C1344       C  0.27027968  0.94741548  0.92974805     0.92200
O1345       O  0.18120737  0.95755473  0.01242189    -0.75700
O1346       O  0.24482484  0.94654935  0.92992816    -0.83200
Mg1347     Mg  0.19940578  0.00175389  0.03219496     1.58000
C1348       C  0.36120207  0.50603028  0.99235930     0.92100
O1349       O  0.21158218  0.54165109  0.05576030    -0.81500
H1350       H  0.33223189  0.57767076  0.01013256    -0.06800
C1351       C  0.26184105  0.94760041  0.99402801     0.87100
O1352       O  0.24573744  0.53490337  0.95602188    -0.76000
O1353       O  0.24132602  0.00214996  0.03928620    -0.88800
O1354       O  0.35145140  0.51172759  0.00969411    -0.81600
C1355       C  0.32381096  0.52601345  0.07210601     0.92300
C1356       C  0.23160275  0.55471521  0.07061919     0.92100
Mg1357     Mg  0.30335518  0.50167213  0.96679927     1.58000
O1358       O  0.28948593  0.95978292  0.94512098    -0.81500
O1359       O  0.32249584  0.54697032  0.98580412    -0.75700
O1360       O  0.30340480  0.53355886  0.07017299    -0.81600
O1361       O  0.15487397  0.00100924  0.02452744    -0.83300
O1362       O  0.20032863  0.97229056  0.92844768    -0.81600
C1363       C  0.31985141  0.55397565  0.00512692     0.86600
O1364       O  0.26236457  0.50277179  0.95926744    -0.88800
O1365       O  0.28110798  0.97502701  0.99484122    -0.88900
O1366       O  0.23876529  0.93759180  0.98158709    -0.75900
Mg1367     Mg  0.28130986  0.54666647  0.04281087     1.58000
O1368       O  0.32975149  0.51320110  0.05666494    -0.83300
H1369       H  0.23744975  0.57372340  0.99576323    -0.07000
O1370       O  0.20036160  0.97165973  0.98013435    -0.88600
H1371       H  0.17107559  0.92806747  0.98727310    -0.06800
H1372       H  0.28486788  0.54130624  0.94229904    -0.07000
C1373       C  0.18346447  0.95152545  0.99282175     0.86500
C1374       C  0.24058936  0.55796104  0.00569777     0.87100
C1375       C  0.26513147  0.52669215  0.95195180     0.87200
H1376       H  0.26439269  0.93185821  0.00439676    -0.07000
O1377       O  0.25914048  0.97110819  0.04332113    -0.76000
Mg1378     Mg  0.22188028  0.95878796  0.95590176     1.58000
H1379       H  0.21977037  0.96417739  0.05695963    -0.07000
C1380       C  0.14098350  0.99756328  0.00659661     0.92100
O1381       O  0.17534976  0.99418194  0.94201733    -0.83300
C1382       C  0.18034134  0.98044410  0.92671336     0.92200
O1383       O  0.25784367  0.55756588  0.06906158    -0.83200
Mg1384     Mg  0.30458689  0.99344907  0.02495504     1.58200
O1385       O  0.15340054  0.99781341  0.98871357    -0.81600
O1386       O  0.34608785  0.49955895  0.97478921    -0.83300
O1387       O  0.28175597  0.80633410  0.99423031    -0.88900
C1388       C  0.26505060  0.73502172  0.95451844     0.87200
Mg1389     Mg  0.30279380  0.81074591  0.02496561     1.58100
O1390       O  0.20062649  0.72881804  0.98053244    -0.88600
O1391       O  0.23960229  0.80117304  0.98062142    -0.75900
C1392       C  0.22574503  0.67727362  0.07216738     0.92200
O1393       O  0.32167441  0.77274621  0.98847520    -0.75700
O1394       O  0.25197944  0.70077464  0.07095618    -0.83200
Mg1395     Mg  0.30446832  0.79863579  0.96754862     1.58000
C1396       C  0.13745534  0.64482820  0.00674738     0.92100
O1397       O  0.29339296  0.82589521  0.94325194    -0.81500
H1398       H  0.17086785  0.74328146  0.98528282    -0.06800
C1399       C  0.23663482  0.68095219  0.00806002     0.87100
O1400       O  0.25603429  0.78867357  0.04193190    -0.76000
O1401       O  0.26297319  0.75713584  0.96077058    -0.88800
O1402       O  0.14953403  0.65785536  0.98896192    -0.81600
C1403       C  0.18309737  0.69944317  0.92709632     0.92300
C1404       C  0.27331433  0.81966074  0.92863892     0.92100
Mg1405     Mg  0.19507185  0.69776968  0.03257971     1.58000
O1406       O  0.20568294  0.67067137  0.05746563    -0.81500
O1407       O  0.17799906  0.72342425  0.01143281    -0.75700
O1408       O  0.20484778  0.72674411  0.92907774    -0.81600
O1409       O  0.34777372  0.84256406  0.97513777    -0.83300
O1410       O  0.29382160  0.77028964  0.07112269    -0.81600
C1411       C  0.18254232  0.73214462  0.99192000     0.86600
O1412       O  0.23671541  0.73927073  0.03927431    -0.88800
O1413       O  0.21806128  0.68986093  0.00620138    -0.88900
O1414       O  0.25988753  0.69470941  0.02024775    -0.75900
Mg1415     Mg  0.22356540  0.76201031  0.95597114     1.58000
O1416       O  0.17522285  0.68075449  0.94264207    -0.83300
H1417       H  0.26585343  0.83402746  0.00248948    -0.07000
O1418       O  0.29923312  0.76721804  0.01949389    -0.88600
H1419       H  0.32863919  0.75237665  0.01441001    -0.06800
H1420       H  0.21524892  0.75780475  0.05477876    -0.07000
C1421       C  0.31709621  0.76374594  0.00794237     0.86500
C1422       C  0.26290796  0.81492836  0.99274457     0.87100
C1423       C  0.23510766  0.76152052  0.04581611     0.87200
H1424       H  0.23349782  0.66155531  0.99859309    -0.07000
O1425       O  0.24458696  0.70778857  0.95867492    -0.76000
Mg1426     Mg  0.27594236  0.73441050  0.04446066     1.58000
H1427       H  0.28510979  0.73897412  0.94571531    -0.07000
C1428       C  0.36206690  0.85244411  0.99290397     0.92100
O1429       O  0.32612844  0.81507462  0.05692799    -0.83300
C1430       C  0.31691187  0.79686702  0.07279963     0.92200
O1431       O  0.24713432  0.79609731  0.92970450    -0.83200
Mg1432     Mg  0.19764337  0.68548420  0.97513956     1.58200
O1433       O  0.35066473  0.83882877  0.01067097    -0.81600
O1434       O  0.15166763  0.65404928  0.02464481    -0.83300
O1435       O  0.02333094  0.71785062  0.99323659    -0.88900
C1436       C  0.47223737  0.73549230  0.95068784     0.87200
Mg1437     Mg  0.00577717  0.69634404  0.02427875     1.58100
O1438       O  0.03061912  0.79896518  0.97862812    -0.88600
O1439       O  0.06179066  0.75752113  0.97857885    -0.75900
C1440       C  0.44825146  0.77561290  0.07055289     0.92200
O1441       O  0.45122136  0.67959906  0.98625118    -0.75700
O1442       O  0.44335229  0.74826117  0.07004241    -0.83200
Mg1443     Mg  0.49449780  0.69498956  0.96566915     1.58000
C1444       C  0.00887756  0.86186694  0.00528024     0.92100
O1445       O  0.03308720  0.70470136  0.94137376    -0.81500
H1446       H  0.07450147  0.82579253  0.98657893    -0.06800
C1447       C  0.44502058  0.76342922  0.00571011     0.87100
O1448       O  0.03008114  0.74239163  0.04209127    -0.76000
O1449       O  0.49605631  0.73712889  0.95725467    -0.88800
O1450       O  0.00991859  0.84969864  0.98751903    -0.81600
C1451       C  0.02170327  0.82100234  0.92567424     0.92300
C1452       C  0.04707795  0.72380951  0.92627643     0.92100
Mg1453     Mg  0.00207278  0.80338280  0.03171863     1.58000
O1454       O  0.46411600  0.79474079  0.05598492    -0.81500
O1455       O  0.04509962  0.81806550  0.01120414    -0.75700
O1456       O  0.03012665  0.80110091  0.92676199    -0.81600
O1457       O  0.49437761  0.65107918  0.97441007    -0.83300
O1458       O  0.46557073  0.69841104  0.07108498    -0.81600
C1459       C  0.05098894  0.81487729  0.99171386     0.86600
O1460       O  0.99953628  0.76107993  0.04010370    -0.88800
O1461       O  0.47279357  0.78067415  0.00425577    -0.88900
O1462       O  0.43397278  0.74080269  0.01842459    -0.75900
Mg1463     Mg  0.04145986  0.77618484  0.95355389     1.58000
O1464       O  0.00796447  0.82525436  0.94128356    -0.83300
H1465       H  0.06648427  0.73138546  0.00144943    -0.07000
O1466       O  0.46509349  0.69923674  0.01877804    -0.88600
H1467       H  0.42139864  0.67171059  0.01063323    -0.06800
H1468       H  0.03886846  0.78206704  0.05654453    -0.07000
C1469       C  0.44497340  0.68295869  0.00563258     0.86500
C1470       C  0.05105756  0.73513435  0.99152401     0.87100
C1471       C  0.02318935  0.76258016  0.04688568     0.87200
H1472       H  0.42983562  0.76730571  0.99561258    -0.07000
O1473       O  0.46533611  0.75566847  0.95556267    -0.76000
Mg1474     Mg  0.45399527  0.72243879  0.04376238     1.58000
H1475       H  0.45646112  0.71593658  0.94112527    -0.07000
C1476       C  0.48990748  0.63701684  0.99223639     0.92100
O1477       O  0.48647636  0.67296367  0.05642727    -0.83300
C1478       C  0.47271559  0.67753443  0.07192473     0.92200
O1479       O  0.05142592  0.75090458  0.92691337    -0.83200
Mg1480     Mg  0.48988101  0.80187645  0.97329532     1.58200
O1481       O  0.48658258  0.64836101  0.00976419    -0.81600
O1482       O  0.00382321  0.84778706  0.02314136    -0.83300
O1483       O  0.14217862  0.52402522  0.67065689    -0.88900
C1484       C  0.19606433  0.59664072  0.71009890     0.87200
Mg1485     Mg  0.15646910  0.51910216  0.63899504     1.58100
O1486       O  0.13540206  0.59964488  0.68435660    -0.88600
O1487       O  0.10476320  0.52718846  0.68541074    -0.75900
C1488       C  0.21213626  0.65418540  0.59253895     0.92200
O1489       O  0.21573339  0.55957451  0.67454157    -0.75700
O1490       O  0.21700169  0.63182408  0.59295996    -0.83200
Mg1491     Mg  0.17454872  0.53329755  0.69672432     1.58000
C1492       C  0.15477384  0.68392877  0.65759720     0.92100
O1493       O  0.13912010  0.50608573  0.72303874    -0.81500
H1494       H  0.09079960  0.58299810  0.67935921    -0.06800
C1495       C  0.21839105  0.64861644  0.65611975     0.87100
O1496       O  0.13094201  0.54048991  0.62266744    -0.76000
O1497       O  0.17245516  0.57390208  0.70376635    -0.88800
O1498       O  0.15344547  0.67057529  0.67527814    -0.81600
C1499       C  0.14626049  0.62992037  0.73698749     0.92300
C1500       C  0.12556356  0.51243052  0.73777835     0.92100
Mg1501     Mg  0.15935361  0.63027840  0.63161007     1.58000
O1502       O  0.19578083  0.65735515  0.60671190    -0.81500
O1503       O  0.11732922  0.60335678  0.65316720    -0.75700
O1504       O  0.14306965  0.60339868  0.73596649    -0.81600
O1505       O  0.17645760  0.99034139  0.68878144    -0.83300
O1506       O  0.19287690  0.56021696  0.59198882    -0.81600
C1507       C  0.11359701  0.59500097  0.67278177     0.86600
O1508       O  0.16143802  0.58988241  0.62393983    -0.88800
O1509       O  0.19083723  0.63915570  0.65799804    -0.88900
O1510       O  0.22830340  0.63550281  0.64374136    -0.75900
Mg1511     Mg  0.12748450  0.56723990  0.70932287     1.58000
O1512       O  0.15691635  0.64847493  0.72133762    -0.83300
H1513       H  0.09852476  0.49419623  0.66384549    -0.07000
O1514       O  0.19735356  0.56288948  0.64335097    -0.88600
H1515       H  0.24187796  0.57884233  0.64804841    -0.06800
H1516       H  0.12092544  0.57087211  0.60904469    -0.07000
C1517       C  0.21918590  0.56730406  0.65481140     0.86500
C1518       C  0.11460966  0.51403474  0.67303803     0.87100
C1519       C  0.13736001  0.56743394  0.61793824     0.87200
H1520       H  0.23440739  0.66798512  0.66574821    -0.07000
O1521       O  0.20145147  0.62345952  0.70595307    -0.76000
Mg1522     Mg  0.20674144  0.59634281  0.61890208     1.58000
H1523       H  0.21276090  0.59364648  0.71901510    -0.07000
C1524       C  0.17889952  0.97985875  0.67059152     0.92100
O1525       O  0.17187698  0.51344237  0.60562953    -0.83300
C1526       C  0.18382041  0.53186445  0.58992607     0.92200
O1527       O  0.12002632  0.53413664  0.73578894    -0.83200
Mg1528     Mg  0.17506766  0.64387618  0.68911942     1.58200
O1529       O  0.17643356  0.49107722  0.65280212    -0.81600
O1530       O  0.15848074  0.67392725  0.63959334    -0.83300
C1531       C  0.11306223  0.68274591  0.84940781     0.01800
C1532       C  0.08605698  0.68461729  0.84986961     0.01700
C1533       C  0.06682716  0.67491482  0.83149444    -0.18800
C1534       C  0.07490655  0.66529866  0.81245450     0.01800
C1535       C  0.10321323  0.66604664  0.81167341     0.01700
C1536       C  0.12116864  0.67355046  0.83037457    -0.18800
H1537       H  0.14163378  0.67176433  0.83017862     0.03800
H1538       H  0.04546836  0.67497449  0.83196115     0.03800
C1539       C  0.06627174  0.90791447  0.85498382     0.01800
C1540       C  0.09579814  0.93411923  0.85452462     0.01700
C1541       C  0.10632407  0.95083225  0.83532783    -0.18800
C1542       C  0.08838655  0.94195563  0.81654825     0.01800
C1543       C  0.05843263  0.91679685  0.81724434     0.01700
C1544       C  0.04767081  0.90020805  0.83646500    -0.18800
H1545       H  0.02482307  0.88058865  0.83684792     0.03800
H1546       H  0.12908276  0.97060633  0.83485426     0.03800
O1547       O  0.46812118  0.61966667  0.67390592    -0.88900
C1548       C  0.40060413  0.59968632  0.71778327     0.87200
Mg1549     Mg  0.46990621  0.64057712  0.64315013     1.58100
O1550       O  0.39602864  0.53650718  0.68962484    -0.88600
O1551       O  0.46828051  0.57999765  0.68748068    -0.75900
C1552       C  0.33302776  0.55685733  0.59997945     0.92200
O1553       O  0.43271225  0.65634030  0.68196329    -0.75700
O1554       O  0.35541178  0.58407505  0.59971139    -0.83200
Mg1555     Mg  0.46243204  0.64208990  0.70163604     1.58000
C1556       C  0.30950235  0.97146330  0.66446421     0.92100
O1557       O  0.49293373  0.63399995  0.72522139    -0.81500
H1558       H  0.41325674  0.50995401  0.68137512    -0.06800
C1559       C  0.34305049  0.56984007  0.66464814     0.87100
O1560       O  0.44873858  0.59406398  0.62582223    -0.76000
O1561       O  0.42301207  0.59915945  0.71050593    -0.88800
O1562       O  0.32359299  0.98289531  0.68220398    -0.81600
C1563       C  0.36955835  0.51574819  0.74349219     0.92300
C1564       C  0.49003516  0.61488852  0.73976053     0.92100
Mg1565     Mg  0.36009137  0.53091818  0.63801891     1.58000
O1566       O  0.32824130  0.53939499  0.61607696    -0.81500
O1567       O  0.38998847  0.51664704  0.65722312    -0.75700
O1568       O  0.39737754  0.53675571  0.74172020    -0.81600
O1569       O  0.00548307  0.68598207  0.69197196    -0.83300
O1570       O  0.42517113  0.63451078  0.59784609    -0.81600
C1571       C  0.40012827  0.52045305  0.67649308     0.86600
O1572       O  0.39946085  0.57365089  0.62945720    -0.88800
O1573       O  0.35393474  0.55282831  0.66579468    -0.88900
O1574       O  0.35368943  0.59223686  0.65169004    -0.75900
Mg1575     Mg  0.43119695  0.56102410  0.71365235     1.58000
O1576       O  0.35037755  0.50961460  0.72828860    -0.83300
H1577       H  0.49768586  0.60682279  0.66426282    -0.07000
O1578       O  0.42590253  0.63583869  0.64975584    -0.88600
H1579       H  0.40896474  0.66266823  0.65795522    -0.06800
H1580       H  0.41797406  0.55328487  0.61254450    -0.07000
C1581       C  0.42207575  0.65213518  0.66281574     0.86500
C1582       C  0.47902648  0.60268186  0.67481862     0.87100
C1583       C  0.42166250  0.57286328  0.62202853     0.87200
H1584       H  0.32438666  0.56587154  0.67513395    -0.07000
O1585       O  0.37363393  0.57836208  0.71382085    -0.76000
Mg1586     Mg  0.39112600  0.61115629  0.62562999     1.58000
H1587       H  0.40401208  0.61913730  0.72731077    -0.07000
C1588       C  0.01344062  0.70007699  0.67406750     0.92100
O1589       O  0.47207250  0.66294024  0.61100230    -0.83300
C1590       C  0.45259315  0.65612805  0.59589499     0.92200
O1591       O  0.46820716  0.58738159  0.73905256    -0.83200
Mg1592     Mg  0.35204399  0.53180240  0.69639234     1.58200
O1593       O  0.49680877  0.68908848  0.65723885    -0.81600
O1594       O  0.31836000  0.98623870  0.64686065    -0.83300
O1595       O  0.35824642  0.80458739  0.66244144    -0.88900
C1596       C  0.42598288  0.85913487  0.62037362     0.87200
Mg1597     Mg  0.35213959  0.82079806  0.69306952     1.58100
O1598       O  0.43618749  0.80361071  0.64728596    -0.88600
O1599       O  0.36360724  0.76822283  0.64775125    -0.75900
C1600       C  0.48761112  0.88600631  0.73846234     0.92200
O1601       O  0.38769760  0.87733964  0.65477277    -0.75700
O1602       O  0.46423864  0.88908217  0.73735764    -0.83200
Mg1603     Mg  0.36291788  0.83290602  0.63503754     1.58000
C1604       C  0.02282764  0.83197129  0.67381952     0.92100
O1605       O  0.33538430  0.79183043  0.61281584    -0.81500
H1606       H  0.42296625  0.76010760  0.65401785    -0.06800
C1607       C  0.48068817  0.88950967  0.67383264     0.87100
O1608       O  0.37715204  0.79997469  0.71098374    -0.76000
O1609       O  0.40521746  0.83492143  0.62757393    -0.88800
O1610       O  0.50878534  0.82933926  0.65612670    -0.81600
C1611       C  0.46512322  0.81379050  0.59429745     0.92300
C1612       C  0.34285631  0.78193164  0.59635558     0.92100
Mg1613     Mg  0.46764621  0.83330459  0.69975645     1.58000
O1614       O  0.49391818  0.87215099  0.72392179    -0.81500
O1615       O  0.44253370  0.78943073  0.67927518    -0.75700
O1616       O  0.43737373  0.80711375  0.59550910    -0.81600
O1617       O  0.31846920  0.83085717  0.64255917    -0.83300
O1618       O  0.39340350  0.86256396  0.73841114    -0.81600
C1619       C  0.43364628  0.78346137  0.65973957     0.86600
O1620       O  0.42562183  0.83240166  0.70726984    -0.88800
O1621       O  0.47287484  0.86220715  0.67251588    -0.88900
O1622       O  0.46685257  0.89875784  0.68605750    -0.75900
Mg1623     Mg  0.40203333  0.79142098  0.62261955     1.58000
O1624       O  0.48376135  0.82732919  0.60971458    -0.83300
H1625       H  0.33198719  0.76079728  0.67066038    -0.07000
O1626       O  0.39384552  0.86332016  0.68689330    -0.88600
H1627       H  0.40654302  0.90668709  0.68009052    -0.06800
H1628       H  0.41046809  0.79425269  0.72457387    -0.07000
C1629       C  0.39618826  0.88334819  0.67437872     0.86500
C1630       C  0.35031716  0.77728095  0.66070849     0.87100
C1631       C  0.40488070  0.80851522  0.71485342     0.87200
H1632       H  0.49919055  0.90579493  0.66389778    -0.07000
O1633       O  0.45372109  0.86762696  0.62422958    -0.76000
Mg1634     Mg  0.42862978  0.87645836  0.71119939     1.58000
H1635       H  0.42040615  0.87369851  0.61099904    -0.07000
C1636       C  0.30716931  0.83370620  0.66013551     0.92100
O1637       O  0.34628719  0.83928460  0.72499483    -0.83300
C1638       C  0.36509593  0.85349619  0.74024585     0.92200
O1639       O  0.36737516  0.78089655  0.59601265    -0.83200
Mg1640     Mg  0.47814305  0.84577571  0.64169697     1.58200
O1641       O  0.31968316  0.83505799  0.67828896    -0.81600
O1642       O  0.01282044  0.83547357  0.69183276    -0.83300
C1643       C  0.31001155  0.89010998  0.85009454     0.01800
C1644       C  0.31040183  0.91808686  0.85071878     0.01700
C1645       C  0.31989390  0.93700032  0.83259799    -0.18800
C1646       C  0.32990643  0.92892758  0.81384988     0.01800
C1647       C  0.32892720  0.90032592  0.81308199     0.01700
C1648       C  0.31887661  0.88130365  0.83130760    -0.18800
H1649       H  0.31818856  0.85953623  0.83095910     0.03800
H1650       H  0.32032266  0.95862843  0.83335314     0.03800
C1651       C  0.00600768  0.73853590  0.48243061     0.01800
C1652       C  0.00858408  0.76770590  0.48164268     0.01700
C1653       C  0.00156382  0.77912787  0.50010943    -0.18800
C1654       C  0.49293542  0.76267268  0.51948970     0.01800
C1655       C  0.49170952  0.73412448  0.52049096     0.01700
C1656       C  0.99789194  0.72227985  0.50187485    -0.18800
H1657       H  0.99640068  0.70014783  0.50253155     0.03800
H1658       H  0.00288514  0.80117708  0.49940446     0.03800
C1659       C  0.23239422  0.74581786  0.48247046     0.01800
C1660       C  0.25972050  0.77433836  0.48388141     0.01700
C1661       C  0.27911297  0.78096307  0.50176610    -0.18800
C1662       C  0.27131842  0.75997908  0.51858683     0.01800
C1663       C  0.24380906  0.73176650  0.51749264     0.01700
C1664       C  0.22471798  0.72471668  0.49934947    -0.18800
H1665       H  0.20378746  0.70289581  0.49844215     0.03800
H1666       H  0.30029992  0.80257291  0.50263237     0.03800
C1667       C  0.26689866  0.99352362  0.48315846     0.01800
C1668       C  0.23621946  0.98581410  0.47971383     0.01700
C1669       C  0.22021876  0.99042361  0.49646775    -0.18800
C1670       C  0.23414188  0.50254374  0.51655134     0.01800
C1671       C  0.26512444  0.51123497  0.51972933     0.01700
C1672       C  0.28110159  0.00657232  0.50298225    -0.18800
H1673       H  0.30458695  0.01243500  0.50560886     0.03800
H1674       H  0.19660593  0.98416693  0.49394251     0.03800
C1675       C  0.99757118  0.52626394  0.00175173     0.01800
C1676       C  0.02627266  0.52808977  0.00342290     0.01800
C1677       C  0.02820139  0.00120307  0.00436385     0.01800
C1678       C  0.00132943  0.97232312  0.00324877     0.01800
C1679       C  0.47235939  0.97027750  0.00212876     0.01800
C1680       C  0.47056811  0.99740816  0.00109422     0.01800
C1681       C  0.36021913  0.66533682  0.32697075     0.01800
C1682       C  0.36193753  0.69409576  0.32670625     0.01800
C1683       C  0.33509875  0.69586570  0.32971215     0.01800
C1684       C  0.30658027  0.66888966  0.33231896     0.01800
C1685       C  0.30456808  0.64011085  0.33046000     0.01800
C1686       C  0.33138420  0.63836818  0.32773258     0.01800
C1687       C  0.13764668  0.83440852  0.66183248     0.01800
C1688       C  0.16722658  0.86061771  0.66222873     0.01800
C1689       C  0.19324562  0.85756549  0.65910068     0.01800
C1690       C  0.18996041  0.82817926  0.65647490     0.01800
C1691       C  0.16034723  0.80169327  0.65608128     0.01800
C1692       C  0.13414021  0.80488874  0.65874309     0.01800
C1693       C  0.05298737  0.83382605  0.67232809    -0.06600
C1694       C  0.07053842  0.84781809  0.65382809    -0.17800
C1695       C  0.09865409  0.84971085  0.65026921     0.10600
C1696       C  0.11002288  0.83725688  0.66571371    -0.06600
C1697       C  0.09319396  0.82460508  0.68475908    -0.17800
C1698       C  0.06497322  0.82271873  0.68821025     0.10600
S1699       S  0.11733204  0.86724323  0.62512716    -0.32800
S1700       S  0.04439079  0.80383697  0.71226390    -0.32800
H1701       H  0.04589492  0.83043504  0.72067733     0.28600
H1702       H  0.13935570  0.85826563  0.62477591     0.28600
H1703       H  0.06205642  0.85719179  0.64170866     0.19200
H1704       H  0.10183959  0.81539029  0.69685869     0.19200
C1705       C  0.27741530  0.83295050  0.65946331    -0.06600
C1706       C  0.25933236  0.82148853  0.64067143    -0.17800
C1707       C  0.23037420  0.81843573  0.63919391     0.10600
C1708       C  0.21825567  0.82588760  0.65726900    -0.06600
C1709       C  0.23544590  0.83537740  0.67648406    -0.17800
C1710       C  0.26514453  0.84040943  0.67749370     0.10600
S1711       S  0.21087861  0.80515266  0.61365698    -0.32800
S1712       S  0.28647475  0.85852093  0.70173121    -0.32800
H1713       H  0.31296772  0.87926122  0.69054465     0.28600
H1714       H  0.19408554  0.82008469  0.61526345     0.28600
H1715       H  0.26786085  0.81498704  0.62678431     0.19200
H1716       H  0.22631170  0.84099113  0.69047382     0.19200
C1717       C  0.35441290  0.86251090  0.75981466    -0.06600
C1718       C  0.32998870  0.86811775  0.75752270    -0.17800
C1719       C  0.32123998  0.88058970  0.77439968     0.10600
C1720       C  0.33800365  0.88895825  0.79395717    -0.06600
C1721       C  0.36194284  0.88273264  0.79649290    -0.17800
C1722       C  0.36996140  0.86921702  0.77991222     0.10600
S1723       S  0.28788108  0.88408675  0.77006712    -0.32800
S1724       S  0.39924972  0.85993213  0.78587479    -0.32800
H1725       H  0.38560476  0.83261513  0.77378209     0.28600
H1726       H  0.27811541  0.87943135  0.79168664     0.28600
H1727       H  0.31765992  0.86297318  0.74235663     0.19200
H1728       H  0.37408407  0.88786344  0.81179720     0.19200
C1729       C  0.29160428  0.76764579  0.53766614    -0.06600
C1730       C  0.30626888  0.75071535  0.54128750    -0.17800
C1731       C  0.32197986  0.75360864  0.56061629     0.10600
C1732       C  0.32376900  0.77449830  0.57660985    -0.06600
C1733       C  0.30944361  0.79175775  0.57269229    -0.17800
C1734       C  0.29337940  0.78853440  0.55355954     0.10600
S1735       S  0.33791252  0.72904703  0.56416282    -0.32800
S1736       S  0.27551218  0.81158287  0.55070455    -0.32800
H1737       H  0.25094794  0.79137968  0.53754284     0.28600
H1738       H  0.33101696  0.72409498  0.58633444     0.28600
H1739       H  0.30446347  0.73425510  0.52924956     0.19200
H1740       H  0.31106549  0.80834103  0.58456368     0.19200
C1741       C  0.48590315  0.77621798  0.53842256    -0.06600
C1742       C  0.50390151  0.78307942  0.55714243    -0.17800
C1743       C  0.49823129  0.79585095  0.57543202     0.10600
C1744       C  0.47478337  0.80346139  0.57482695    -0.06600
C1745       C  0.45744357  0.79736894  0.55573355    -0.17800
C1746       C  0.46231701  0.78341905  0.53781614     0.10600
S1747       S  0.52040782  0.79965685  0.59930834    -0.32800
S1748       S  0.43675950  0.77428161  0.51504052    -0.32800
H1749       H  0.43695419  0.74759025  0.50890432     0.28600
H1750       H  0.49468671  0.78355507  0.61256933     0.28600
H1751       H  0.02210213  0.77772861  0.55770301     0.19200
H1752       H  0.43908822  0.80249952  0.55497678     0.19200
C1753       C  0.28126623  0.94076606  0.66412413    -0.06600
C1754       C  0.27114780  0.92546022  0.64413937    -0.17800
C1755       C  0.24286718  0.89869640  0.64191387     0.10600
C1756       C  0.22439463  0.88552940  0.66030872    -0.06600
C1757       C  0.23493267  0.90002424  0.68045519    -0.17800
C1758       C  0.26247952  0.92763856  0.68251123     0.10600
S1759       S  0.23126337  0.88412985  0.61481975    -0.32800
S1760       S  0.27061486  0.94583106  0.70870319    -0.32800
H1761       H  0.27492773  0.97365876  0.70053544     0.28600
H1762       H  0.19967895  0.86916338  0.61825752     0.28600
H1763       H  0.28480618  0.93515193  0.62978045     0.19200
H1764       H  0.22084406  0.89031956  0.69461916     0.19200
C1765       C  0.10321112  0.77722967  0.66154399    -0.06600
C1766       C  0.09737279  0.76146692  0.68119313    -0.17800
C1767       C  0.06810945  0.73799226  0.68661697     0.10600
C1768       C  0.04362508  0.72874230  0.67170751    -0.06600
C1769       C  0.04955915  0.74484233  0.65212272    -0.17800
C1770       C  0.07862946  0.76874025  0.64687980     0.10600
S1771       S  0.06409227  0.72112174  0.71284394    -0.32800
S1772       S  0.08187115  0.78635060  0.62093280    -0.32800
H1773       H  0.11323329  0.80641414  0.62127804     0.28600
H1774       H  0.04001324  0.72589829  0.71886338     0.28600
H1775       H  0.11569469  0.76843091  0.69288184     0.19200
H1776       H  0.03138653  0.73840645  0.64038958     0.19200
C1777       C  0.34096268  0.95124450  0.79581432    -0.06600
C1778       C  0.32049800  0.95930613  0.78677833    -0.17800
C1779       C  0.32957779  0.98158511  0.77064576     0.10600
C1780       C  0.35985145  0.49596793  0.76295763    -0.06600
C1781       C  0.38064327  0.48874003  0.77260892    -0.17800
C1782       C  0.37172263  0.96705123  0.78914686     0.10600
S1783       S  0.30269852  0.99248743  0.76088985    -0.32800
S1784       S  0.40095494  0.46154535  0.80144275    -0.32800
H1785       H  0.38777872  0.95368511  0.82209298     0.28600
H1786       H  0.27745915  0.97124068  0.77291166     0.28600
H1787       H  0.29727069  0.94813865  0.79261060     0.19200
H1788       H  0.40402534  0.49980473  0.76705023     0.19200
C1789       C  0.31328023  0.54433498  0.58047558    -0.06600
C1790       C  0.30621120  0.56327911  0.56811657    -0.17800
C1791       C  0.29041505  0.55327495  0.54834184     0.10600
C1792       C  0.28097421  0.52339295  0.54078573    -0.06600
C1793       C  0.28774064  0.50443196  0.55321382    -0.17800
C1794       C  0.30376093  0.51444012  0.57274627     0.10600
S1795       S  0.28440974  0.58030268  0.53325125    -0.32800
S1796       S  0.31312635  0.98847807  0.58604409    -0.32800
H1797       H  0.34391973  0.01053651  0.58955272     0.28600
H1798       H  0.28266949  0.56774777  0.51263620     0.28600
H1799       H  0.31373607  0.58633506  0.57363163     0.19200
H1800       H  0.28103294  0.98171069  0.54733770     0.19200
C1801       C  0.46183202  0.67494649  0.57595538    -0.06600
C1802       C  0.49213170  0.68799304  0.56884952    -0.17800
C1803       C  0.00273165  0.70809238  0.55129566     0.10600
C1804       C  0.48266178  0.71535564  0.54036428    -0.06600
C1805       C  0.45260574  0.70280016  0.54757061    -0.17800
C1806       C  0.44199547  0.68280299  0.56512078     0.10600
S1807       S  0.04226277  0.72415821  0.54392393    -0.32800
S1808       S  0.40352341  0.66982627  0.57372415    -0.32800
H1809       H  0.39345070  0.63942753  0.56755968     0.28600
H1810       H  0.04604731  0.75161303  0.53549610     0.28600
H1811       H  0.00779838  0.68277514  0.57718989     0.19200
H1812       H  0.43715723  0.70839200  0.53928305     0.19200
C1813       C  0.03837304  0.90769363  0.79789493    -0.06600
C1814       C  0.03101698  0.92880556  0.78904125    -0.17800
C1815       C  0.01529050  0.92303931  0.76935761     0.10600
C1816       C  0.00625395  0.89531771  0.75836096    -0.06600
C1817       C  0.01258212  0.87377537  0.76766301    -0.17800
C1818       C  0.02826787  0.87944608  0.78727065     0.10600
S1819       S  0.00855772  0.95232539  0.75880131    -0.32800
S1820       S  0.03451314  0.84954148  0.79748345    -0.32800
H1821       H  0.06174090  0.86812750  0.80878847     0.28600
H1822       H  0.01110774  0.94631640  0.73690389     0.28600
H1823       H  0.03840108  0.95036933  0.79725758     0.19200
H1824       H  0.50482470  0.85197538  0.75967454     0.19200
C1825       C  0.05297409  0.65333809  0.79397344    -0.06600
C1826       C  0.02666751  0.62460244  0.79596479    -0.17800
C1827       C  0.50600332  0.61112781  0.77871711     0.10600
C1828       C  0.01199637  0.62625053  0.75845196    -0.06600
C1829       C  0.03865746  0.65500478  0.75662566    -0.17800
C1830       C  0.05860512  0.66887885  0.77413153     0.10600
S1831       S  0.47204696  0.57532398  0.78421137    -0.32800
S1832       S  0.09025728  0.70689598  0.77030411    -0.32800
H1833       H  0.09158113  0.71646773  0.79186299     0.28600
H1834       H  0.45230335  0.58597743  0.77787776     0.28600
H1835       H  0.02215176  0.61256104  0.81119159     0.19200
H1836       H  0.04370426  0.66734744  0.74154596     0.19200
C1837       C  0.15354702  0.71273372  0.65819267    -0.06600
C1838       C  0.14270047  0.72093935  0.63998343    -0.17800
C1839       C  0.14422614  0.74934088  0.63863624     0.10600
C1840       C  0.15715856  0.77059644  0.65597710    -0.06600
C1841       C  0.16728825  0.76205434  0.67437531    -0.17800
C1842       C  0.16572818  0.73373061  0.67571134     0.10600
S1843       S  0.13002721  0.75650866  0.61389693    -0.32800
S1844       S  0.18195378  0.72706104  0.69960358    -0.32800
H1845       H  0.15354169  0.70346375  0.70677205     0.28600
H1846       H  0.14441128  0.78815283  0.61600149     0.28600
H1847       H  0.13340699  0.70523999  0.62641719     0.19200
H1848       H  0.17681454  0.77785557  0.68787064     0.19200
C1849       C  0.17160720  0.89181868  0.66562900    -0.06600
C1850       C  0.18393987  0.91268252  0.64857004    -0.17800
C1851       C  0.18996727  0.94262393  0.65062675     0.10600
C1852       C  0.18137865  0.95182567  0.66973815    -0.06600
C1853       C  0.17045568  0.93145588  0.68726918    -0.17800
C1854       C  0.16637341  0.90198567  0.68565430     0.10600
S1855       S  0.20952639  0.96793033  0.62842208    -0.32800
S1856       S  0.15513974  0.87916021  0.70988224    -0.32800
H1857       H  0.16508584  0.85883518  0.70376386     0.28600
H1858       H  0.22649743  0.99376719  0.64165194     0.28600
H1859       H  0.18938072  0.90568845  0.63346863     0.19200
H1860       H  0.16442038  0.93823775  0.70226088     0.19200
C1861       C  0.11735217  0.99496190  0.75825539    -0.06600
C1862       C  0.11219959  0.96498081  0.75816555    -0.17800
C1863       C  0.10523166  0.94802105  0.77725221     0.10600
C1864       C  0.10085415  0.96024951  0.79662289    -0.06600
C1865       C  0.10715539  0.99048513  0.79694098    -0.17800
C1866       C  0.11665857  0.50831991  0.77832582     0.10600
S1867       S  0.10402184  0.91186287  0.77601970    -0.32800
S1868       S  0.13032351  0.54847533  0.78200413    -0.32800
H1869       H  0.15566601  0.55797512  0.76836482     0.28600
H1870       H  0.11227283  0.91196927  0.79777886     0.28600
H1871       H  0.11434809  0.95491481  0.74324592     0.19200
H1872       H  0.10517143  0.00045526  0.81196775     0.19200
C1873       C  0.13565036  0.63864078  0.75647945    -0.06600
C1874       C  0.15321606  0.66812216  0.76503124    -0.17800
C1875       C  0.14274282  0.67801758  0.78245834     0.10600
C1876       C  0.11426087  0.65772534  0.79200752    -0.06600
C1877       C  0.09671955  0.62830452  0.78334764    -0.17800
C1878       C  0.10666669  0.61887274  0.76545089     0.10600
S1879       S  0.16658188  0.71707044  0.79115511    -0.32800
S1880       S  0.07975164  0.58294513  0.75317320    -0.32800
H1881       H  0.09725585  0.56923789  0.75768163     0.28600
H1882       H  0.14312648  0.72115721  0.79951255     0.32200
H1883       H  0.17500899  0.68375653  0.75781219     0.19200
H1884       H  0.07496614  0.61251652  0.79050040     0.19200
C1885       C  0.21599691  0.50599657  0.53399667    -0.06600
C1886       C  0.20880603  0.52929503  0.53224468    -0.17800
C1887       C  0.19582000  0.53667683  0.54954658     0.10600
C1888       C  0.19022570  0.52070828  0.56935694    -0.06600
C1889       C  0.19495017  0.49556992  0.57027276    -0.17800
C1890       C  0.20731564  0.48782003  0.55278651     0.10600
S1891       S  0.18722633  0.56680765  0.54521394    -0.32800
S1892       S  0.21180646  0.95479143  0.55565642    -0.32800
H1893       H  0.21148410  0.94858872  0.53344386     0.28600
H1894       H  0.16083558  0.55352418  0.55806840     0.28600
H1895       H  0.21434698  0.54255142  0.51752365     0.19200
H1896       H  0.19013909  0.48249632  0.58502085     0.19200
C1897       C  0.23448830  0.71053789  0.53601997    -0.06600
C1898       C  0.22826284  0.72028055  0.55560799    -0.17800
C1899       C  0.22392406  0.70400470  0.57467037     0.10600
C1900       C  0.22317766  0.67562504  0.57403130    -0.06600
C1901       C  0.22916074  0.66572709  0.55426674    -0.17800
C1902       C  0.23536667  0.68311096  0.53541193     0.10600
S1903       S  0.22104462  0.72177198  0.59923678    -0.32800
S1904       S  0.24416954  0.66899033  0.51124351    -0.32800
H1905       H  0.26338428  0.69751164  0.50181393     0.28600
H1906       H  0.23826816  0.71257047  0.61176510     0.28600
H1907       H  0.22821163  0.74165099  0.55624703     0.19200
H1908       H  0.22863636  0.64407256  0.55335863     0.19200
C1909       C  0.49038583  0.60763128  0.99354035    -0.06600
C1910       C  0.48618429  0.59388032  0.01400153    -0.17800
C1911       C  0.48909736  0.56813550  0.01735112     0.10600
C1912       C  0.49583897  0.55479810  0.99970267    -0.06600
C1913       C  0.99993525  0.56811458  0.97921168    -0.17800
C1914       C  0.99761594  0.59429559  0.97593221     0.10600
S1915       S  0.48439366  0.55428110  0.04474664    -0.32800
S1916       S  0.00485779  0.60946055  0.94896118    -0.32800
H1917       H  0.03027759  0.63731512  0.95542695     0.28600
H1918       H  0.49772571  0.53598857  0.04230506     0.28600
H1919       H  0.48144740  0.60379777  0.02790099     0.19200
H1920       H  0.00500094  0.55793650  0.96556241     0.19200
C1921       C  0.01078437  0.89206567  0.00445503    -0.06600
C1922       C  0.00091145  0.89986594  0.98543362    -0.17800
C1923       C  0.49828349  0.92604941  0.98432005     0.10600
C1924       C  0.00408566  0.94428228  0.00303944    -0.06600
C1925       C  0.01512451  0.93719127  0.02173109    -0.17800
C1926       C  0.01929288  0.91193439  0.02246355     0.10600
S1927       S  0.48836494  0.93500236  0.95833258    -0.32800
S1928       S  0.03689473  0.90730524  0.04641969    -0.32800
H1929       H  0.05366414  0.89633975  0.03521168     0.28600
H1930       H  0.49943989  0.96620220  0.96202748     0.28600
H1931       H  0.49484866  0.88528078  0.97125081     0.19200
H1932       H  0.02092542  0.95175401  0.03586511     0.19200
C1933       C  0.03050082  0.84182704  0.90665456    -0.06600
C1934       C  0.03425509  0.87119417  0.90971285    -0.17800
C1935       C  0.04574124  0.89327327  0.89335013     0.10600
C1936       C  0.05472826  0.88643196  0.87349013    -0.06600
C1937       C  0.05040132  0.85704148  0.87020267    -0.17800
C1938       C  0.03813405  0.83469954  0.88628363     0.10600
S1939       S  0.04766147  0.92926057  0.89883861    -0.32800
S1940       S  0.03188131  0.79737669  0.87932395    -0.32800
H1941       H  0.00374848  0.78159797  0.89007766     0.28600
H1942       H  0.04540249  0.93660234  0.87726578     0.28600
H1943       H  0.02852297  0.87726775  0.92512038     0.19200
H1944       H  0.05630856  0.85130891  0.85472336     0.19200
C1945       C  0.07678121  0.69529829  0.86954159    -0.06600
C1946       C  0.04928831  0.67506255  0.87971058    -0.17800
C1947       C  0.03894011  0.68399559  0.89779140     0.10600
C1948       C  0.05711804  0.71351307  0.90692435    -0.06600
C1949       C  0.08440018  0.73397064  0.89653528    -0.17800
C1950       C  0.09415492  0.72536567  0.87783103     0.10600
S1951       S  0.50105242  0.65750016  0.90711991    -0.32800
S1952       S  0.12749217  0.75366225  0.86381315    -0.32800
H1953       H  0.13680683  0.77702081  0.87938977     0.28600
H1954       H  0.49269944  0.67984604  0.91060231     0.28600
H1955       H  0.03531490  0.65229172  0.87311719     0.19200
H1956       H  0.09782755  0.75690697  0.90291895     0.19200
C1957       C  0.10712014  0.61668499  0.00593678    -0.06600
C1958       C  0.09800869  0.60014267  0.98632463    -0.17800
C1959       C  0.07185552  0.57137296  0.98492245     0.10600
C1960       C  0.05430851  0.55841963  0.00366119    -0.06600
C1961       C  0.06275059  0.57512187  0.02305701    -0.17800
C1962       C  0.08853609  0.60412203  0.02437926     0.10600
S1963       S  0.06294327  0.55261558  0.95878352    -0.32800
S1964       S  0.09576548  0.62382932  0.04995576    -0.32800
H1965       H  0.10455343  0.65236509  0.04059773     0.28600
H1966       H  0.03308842  0.52922817  0.96288615     0.28600
H1967       H  0.11184334  0.60923489  0.97196871     0.19200
H1968       H  0.04910636  0.56554448  0.03737410     0.19200
C1969       C  0.39185974  0.88149494  0.99373996    -0.06600
C1970       C  0.40877563  0.88874556  0.01312438    -0.17800
C1971       C  0.43430589  0.91745698  0.01679232     0.10600
C1972       C  0.44419829  0.93979332  0.00032264    -0.06600
C1973       C  0.42767833  0.93255171  0.98084192    -0.17800
C1974       C  0.40189510  0.90394529  0.97729785     0.10600
S1975       S  0.45131634  0.92361521  0.04345145    -0.32800
S1976       S  0.38244343  0.89857768  0.95181027    -0.32800
H1977       H  0.38521161  0.87314445  0.94603240     0.28600
H1978       H  0.47328421  0.95450832  0.04166420     0.28600
H1979       H  0.40146201  0.87216076  0.02604451     0.19200
H1980       H  0.43525779  0.94935657  0.96805312     0.19200
C1981       C  0.28193581  0.83888696  0.90898525    -0.06600
C1982       C  0.31301758  0.85528685  0.90347334    -0.17800
C1983       C  0.32283867  0.87110084  0.88398715     0.10600
C1984       C  0.30106132  0.87043085  0.86938063    -0.06600
C1985       C  0.27000387  0.85338389  0.87443209    -0.17800
C1986       C  0.26023509  0.83840947  0.89423355     0.10600
S1987       S  0.36339530  0.89077514  0.87886683    -0.32800
S1988       S  0.22004184  0.82056241  0.89991314    -0.32800
H1989       H  0.22435393  0.83026470  0.92165816     0.28600
H1990       H  0.36458712  0.90901717  0.86146216     0.28600
H1991       H  0.32997324  0.85536038  0.91424842     0.19200
H1992       H  0.25328397  0.85290853  0.86321189     0.19200
C1993       C  0.13172245  0.68711380  0.86901694    -0.06600
C1994       C  0.11770401  0.66768556  0.88662393    -0.17800
C1995       C  0.13423581  0.66913359  0.90517598     0.10600
C1996       C  0.16573283  0.69095598  0.90645243    -0.06600
C1997       C  0.17994408  0.70930710  0.88833260    -0.17800
C1998       C  0.16349486  0.70779358  0.86978276     0.10600
S1999       S  0.11324717  0.64347347  0.92682262    -0.32800
S2000       S  0.18479169  0.73379209  0.84825032    -0.32800
H2001       H  0.16027994  0.73404226  0.83790608     0.28600
H2002       H  0.13284494  0.63129954  0.92799806     0.28600
H2003       H  0.09360800  0.65093669  0.88581274     0.19200
H2004       H  0.20407182  0.72601666  0.88889871     0.19200
C2005       C  0.38951684  0.50429519  0.99373537    -0.06600
C2006       C  0.39511365  0.49365784  0.01322923    -0.17800
C2007       C  0.42032999  0.98979598  0.01591488     0.10600
C2008       C  0.44076518  0.49640853  0.99856208    -0.06600
C2009       C  0.43447299  0.50570333  0.97870215    -0.17800
C2010       C  0.40959123  0.51035853  0.97623129     0.10600
S2011       S  0.42429871  0.97620535  0.04196508    -0.32800
S2012       S  0.40591085  0.52573650  0.95088388    -0.32800
H2013       H  0.39636301  0.54491490  0.96028219     0.28600
H2014       H  0.45570810  0.98774945  0.04114380     0.28600
H2015       H  0.37949059  0.98805385  0.02664802     0.19200
H2016       H  0.44993915  0.51068481  0.96527046     0.19200
C2017       C  0.11079340  0.99604313  0.00619762    -0.06600
C2018       C  0.10136950  0.50524987  0.02476409    -0.17800
C2019       C  0.07511759  0.50790815  0.02467073     0.10600
C2020       C  0.05831293  0.00258765  0.00525395    -0.06600
C2021       C  0.06770484  0.99357663  0.98671320    -0.17800
C2022       C  0.09275315  0.98908708  0.98711736     0.10600
S2023       S  0.06414216  0.51713143  0.05012991    -0.32800
S2024       S  0.09894756  0.97277349  0.96299179    -0.32800
H2025       H  0.10510314  0.95238016  0.97437871     0.28600
H2026       H  0.03330640  0.50628927  0.04529279     0.28600
H2027       H  0.11455550  0.51049892  0.03959213     0.19200
H2028       H  0.05427260  0.98832090  0.97200815     0.19200
C2029       C  0.16051658  0.97075796  0.90711849    -0.06600
C2030       C  0.15475240  0.94358336  0.89664707    -0.17800
C2031       C  0.13359324  0.93084083  0.87970735     0.10600
C2032       C  0.11685278  0.94494449  0.87332112    -0.06600
C2033       C  0.12304197  0.97245052  0.88330876    -0.17800
C2034       C  0.14476757  0.98563650  0.89989523     0.10600
S2035       S  0.12962355  0.89691543  0.86686956    -0.32800
S2036       S  0.15209934  0.02198285  0.91040796    -0.32800
H2037       H  0.18368115  0.53388669  0.91290815     0.28600
H2038       H  0.11927525  0.90061676  0.84661915     0.28600
H2039       H  0.16655778  0.93178872  0.90186554     0.19200
H2040       H  0.11118158  0.98407226  0.87779947     0.19200
C2041       C  0.30085669  0.92756748  0.87042616    -0.06600
C2042       C  0.26956028  0.91525689  0.87394962    -0.17800
C2043       C  0.25858816  0.91873511  0.89384952     0.10600
C2044       C  0.27947131  0.93682103  0.91027486    -0.06600
C2045       C  0.31086993  0.94910822  0.90658049    -0.17800
C2046       C  0.32175361  0.94471177  0.88696824     0.10600
S2047       S  0.21784496  0.89799094  0.89751406    -0.32800
S2048       S  0.36253063  0.96150491  0.88444176    -0.32800
H2049       H  0.36413080  0.96315498  0.86181736     0.28600
H2050       H  0.21947694  0.89003612  0.91908600     0.28600
H2051       H  0.25346181  0.90142675  0.86143453     0.19200
H2052       H  0.32735544  0.96317814  0.91881540     0.19200
C2053       C  0.42671204  0.80977885  0.12854566    -0.06600
C2054       C  0.43251192  0.82585656  0.10904970    -0.17800
C2055       C  0.43756716  0.81453376  0.08961005     0.10600
C2056       C  0.43786023  0.78655228  0.08961416    -0.06600
C2057       C  0.43143869  0.77025405  0.10918825    -0.17800
C2058       C  0.42582531  0.78146454  0.12849285     0.10600
S2059       S  0.94267259  0.83596667  0.06503866    -0.32800
S2060       S  0.41730683  0.75933249  0.15299255    -0.32800
H2061       H  0.41498265  0.73296565  0.14344712     0.28600
H2062       H  0.93771283  0.85873130  0.07395259     0.28600
H2063       H  0.43286003  0.84741467  0.10911315     0.19200
H2064       H  0.43169318  0.74900184  0.10955857     0.19200
C2065       C  0.37206981  0.81679465  0.12984917    -0.06600
C2066       C  0.37428898  0.84097483  0.11745721    -0.17800
C2067       C  0.35560625  0.83557689  0.09938027     0.10600
C2068       C  0.33441019  0.80515139  0.09332526    -0.06600
C2069       C  0.33176307  0.78110317  0.10630883    -0.17800
C2070       C  0.35001627  0.78657134  0.12456296     0.10600
S2071       S  0.35968793  0.86848196  0.08519367    -0.32800
S2072       S  0.34410506  0.75386057  0.14005977    -0.32800
H2073       H  0.35606325  0.76896789  0.15980992     0.28600
H2074       H  0.32817024  0.85613167  0.08186801     0.28600
H2075       H  0.39075993  0.86427378  0.12195885     0.19200
H2076       H  0.31574588  0.75760077  0.10200433     0.19200
C2077       C  0.32322394  0.54954185  0.32930189    -0.06600
C2078       C  0.32464752  0.56347679  0.30929416    -0.17800
C2079       C  0.32727598  0.59227946  0.30808918     0.10600
C2080       C  0.32921067  0.60812312  0.32741539    -0.06600
C2081       C  0.32710052  0.59419194  0.34732601    -0.17800
C2082       C  0.32341417  0.56503102  0.34854811     0.10600
S2083       S  0.32777905  0.60674580  0.28129721    -0.32800
S2084       S  0.31848666  0.54915303  0.37522985    -0.32800
H2085       H  0.34768788  0.55224050  0.37528793     0.28600
H2086       H  0.33347526  0.63593505  0.28695830     0.28600
H2087       H  0.32413711  0.55207673  0.29429638     0.19200
H2088       H  0.32796190  0.60608858  0.36215123     0.19200
C2089       C  0.33724426  0.72610431  0.33149613    -0.06600
C2090       C  0.34178221  0.73935493  0.35210649    -0.17800
C2091       C  0.34698053  0.76900136  0.35491081     0.10600
C2092       C  0.34490074  0.78510720  0.33693531    -0.06600
C2093       C  0.34050362  0.77168450  0.31622814    -0.17800
C2094       C  0.33706144  0.74272019  0.31325948     0.10600
S2095       S  0.35834631  0.78543984  0.38150849    -0.32800
S2096       S  0.33232490  0.72878258  0.28574776    -0.32800
H2097       H  0.32407224  0.69847771  0.29006135     0.28600
H2098       H  0.38017201  0.81447707  0.37394797     0.28600
H2099       H  0.34278028  0.72700736  0.36607629     0.19200
H2100       H  0.33904147  0.78351980  0.30209274     0.19200
C2101       C  0.31149237  0.97481046  0.43098354    -0.06600
C2102       C  0.28985615  0.95090330  0.44390735    -0.17800
C2103       C  0.27651156  0.95653575  0.46177633     0.10600
C2104       C  0.28396275  0.98673360  0.46666448    -0.06600
C2105       C  0.30738635  0.01083420  0.45508834    -0.17800
C2106       C  0.32152886  0.00525197  0.43756104     0.10600
S2107       S  0.24990120  0.92407789  0.47748384    -0.32800
S2108       S  0.35248481  0.53787314  0.42469861    -0.32800
H2109       H  0.36934341  0.52326494  0.42030846     0.28600
H2110       H  0.25375395  0.93997071  0.49700074     0.28600
H2111       H  0.28233216  0.92737695  0.43970229     0.19200
H2112       H  0.31423629  0.53415448  0.45945196     0.19200
C2113       C  0.28354335  0.82834520  0.42644100    -0.06600
C2114       C  0.26011292  0.82634702  0.43966917    -0.17800
C2115       C  0.25332342  0.81096552  0.45943293     0.10600
C2116       C  0.26959524  0.79632077  0.46583510    -0.06600
C2117       C  0.29377100  0.79939769  0.45314059    -0.17800
C2118       C  0.30123185  0.81557590  0.43379523     0.10600
S2119       S  0.22404976  0.81120171  0.47579032    -0.32800
S2120       S  0.33456617  0.82028922  0.42000906    -0.32800
H2121       H  0.34632106  0.85148912  0.41571181     0.28600
H2122       H  0.23474001  0.80666507  0.49566453     0.28600
H2123       H  0.24715843  0.83705657  0.43467376     0.19200
H2124       H  0.30656877  0.78852572  0.45816432     0.19200
C2125       C  0.36684404  0.86393355  0.24183322    -0.06600
C2126       C  0.35195546  0.83392877  0.23384824    -0.17800
C2127       C  0.36353394  0.82574219  0.21616779     0.10600
C2128       C  0.39024131  0.84816141  0.20582712    -0.06600
C2129       C  0.40527188  0.87807577  0.21384851    -0.17800
C2130       C  0.39439204  0.88601176  0.23202943     0.10600
S2131       S  0.34347691  0.78622956  0.20778948    -0.32800
S2132       S  0.41788720  0.92410967  0.24264400    -0.32800
H2133       H  0.41432391  0.91498893  0.26443694     0.28600
H2134       H  0.36939430  0.78539880  0.20067408     0.28600
H2135       H  0.33133494  0.81667062  0.24156305     0.19200
H2136       H  0.42597223  0.89519684  0.20613158     0.19200
C2137       C  0.21732044  0.55733567  0.33816639    -0.06600
C2138       C  0.22576417  0.57211657  0.31795436    -0.17800
C2139       C  0.25368716  0.59889356  0.31485025     0.10600
C2140       C  0.27428556  0.61167345  0.33239195    -0.06600
C2141       C  0.26570190  0.59768694  0.35269821    -0.17800
C2142       C  0.23756801  0.57119025  0.35591846     0.10600
S2143       S  0.26121974  0.61449203  0.28782804    -0.32800
S2144       S  0.22955163  0.55657051  0.38308887    -0.32800
H2145       H  0.20079483  0.55450281  0.38350635     0.28600
H2146       H  0.28947627  0.64068048  0.29154002     0.28600
H2147       H  0.21077817  0.56237251  0.30407693     0.19200
H2148       H  0.28114219  0.60765663  0.36630636     0.19200
C2149       C  0.39238579  0.72242178  0.32508879    -0.06600
C2150       C  0.40476739  0.73979705  0.34392752    -0.17800
C2151       C  0.43317528  0.76638025  0.34393047     0.10600
C2152       C  0.45163469  0.77450469  0.32520693    -0.06600
C2153       C  0.43933485  0.75706658  0.30627798    -0.17800
C2154       C  0.40977274  0.73169044  0.30580591     0.10600
S2155       S  0.44269133  0.79033045  0.36763972    -0.32800
S2156       S  0.39601482  0.71330014  0.27983052    -0.32800
H2157       H  0.36638896  0.69159023  0.28586479     0.28600
H2158       H  0.45344826  0.81758483  0.35590620     0.28600
H2159       H  0.39178082  0.73300951  0.35876360     0.19200
H2160       H  0.45265603  0.76358810  0.29155367     0.19200
C2161       C  0.03207701  0.82214030  0.42368152    -0.06600
C2162       C  0.04919008  0.83425519  0.44277932    -0.17800
C2163       C  0.04290272  0.81665230  0.46148978     0.10600
C2164       C  0.01784916  0.78653402  0.46172373    -0.06600
C2165       C  0.00044870  0.77453711  0.44283350    -0.17800
C2166       C  0.00798191  0.79136189  0.42369924     0.10600
S2167       S  0.06843287  0.83365611  0.48422784    -0.32800
S2168       S  0.98757206  0.77098894  0.39971518    -0.32800
H2169       H  0.01390787  0.78190196  0.38693533     0.28600
H2170       H  0.06589576  0.80629167  0.49179858     0.28600
H2171       H  0.06824931  0.85742173  0.44300987     0.19200
H2172       H  0.98121318  0.75151621  0.44279839     0.19200
C2173       C  0.22008636  0.97259977  0.45889911    -0.06600
C2174       C  0.19673494  0.94199071  0.45848109    -0.17800
C2175       C  0.17977616  0.92840318  0.43963372     0.10600
C2176       C  0.18531264  0.94615064  0.42062409    -0.06600
C2177       C  0.20985464  0.97647528  0.42094495    -0.17800
C2178       C  0.22683666  0.98992538  0.43977239     0.10600
S2179       S  0.15123495  0.88860638  0.44143407    -0.32800
S2180       S  0.25526147  0.52989337  0.43848619    -0.32800
H2181       H  0.25363543  0.53691495  0.46027513     0.28600
H2182       H  0.16023566  0.88074793  0.42205790     0.28600
H2183       H  0.19162721  0.92851904  0.47307271     0.19200
H2184       H  0.21491198  0.99062998  0.40673061     0.19200
C2185       C  0.45156276  0.85341877  0.20457768    -0.06600
C2186       C  0.44135058  0.83968335  0.22486457    -0.17800
C2187       C  0.45873478  0.85227248  0.24368955     0.10600
C2188       C  0.48837305  0.87824601  0.24231376    -0.06600
C2189       C  0.49877291  0.89167140  0.22191332    -0.17800
C2190       C  0.48060718  0.87999152  0.20325850     0.10600
S2191       S  0.44090807  0.83479777  0.26896631    -0.32800
S2192       S  0.49566701  0.90043813  0.17835012    -0.32800
H2193       H  0.46770680  0.89628118  0.17058765     0.28600
H2194       H  0.45335443  0.86255477  0.28048183     0.28600
H2195       H  0.41897739  0.81955655  0.22619010     0.19200
H2196       H  0.02141650  0.91135426  0.22037989     0.19200
C2197       C  0.44269222  0.61805517  0.12773825    -0.06600
C2198       C  0.44381224  0.60664843  0.10727907    -0.17800
C2199       C  0.45267004  0.62522619  0.08894056     0.10600
C2200       C  0.46308436  0.65688049  0.09101212    -0.06600
C2201       C  0.46223421  0.66841183  0.11154762    -0.17800
C2202       C  0.45177072  0.64942012  0.12976509     0.10600
S2203       S  0.44743343  0.60627747  0.06326283    -0.32800
S2204       S  0.44991331  0.66671766  0.15489988    -0.32800
H2205       H  0.42571053  0.64034249  0.16398444     0.28600
H2206       H  0.43518702  0.62243878  0.05278940     0.28600
H2207       H  0.43698642  0.58275468  0.10543342     0.19200
H2208       H  0.46931856  0.69237353  0.11338285     0.19200
C2209       C  0.38246281  0.55836389  0.12849961    -0.06600
C2210       C  0.37803578  0.53203622  0.11758767    -0.17800
C2211       C  0.35823127  0.52007152  0.09976830     0.10600
C2212       C  0.34251006  0.53490801  0.09232071    -0.06600
C2213       C  0.34660680  0.56094330  0.10364006    -0.17800
C2214       C  0.36596738  0.57251422  0.12166333     0.10600
S2215       S  0.35366509  0.98552867  0.08771603    -0.32800
S2216       S  0.36837946  0.60521458  0.13526257    -0.32800
H2217       H  0.37288547  0.59703201  0.15608464     0.28600
H2218       H  0.32207672  0.97239361  0.08428633     0.28600
H2219       H  0.39017156  0.52068937  0.12304756     0.19200
H2220       H  0.33492838  0.57277232  0.09826030     0.19200
C2221       C  0.39026547  0.50879328  0.24339332    -0.06600
C2222       C  0.38935426  0.49425475  0.22372978    -0.17800
C2223       C  0.39651220  0.50985009  0.20407652     0.10600
C2224       C  0.40436532  0.54086824  0.20382650    -0.06600
C2225       C  0.40427046  0.55513533  0.22338319    -0.17800
C2226       C  0.39835463  0.53985571  0.24314391     0.10600
S2227       S  0.39522382  0.48855594  0.18016849    -0.32800
S2228       S  0.40323377  0.56177760  0.26740339    -0.32800
H2229       H  0.41551688  0.54712329  0.27974878     0.28600
H2230       H  0.41746419  0.51312845  0.16823187     0.28600
H2231       H  0.38271006  0.97028516  0.22358529     0.19200
H2232       H  0.41002527  0.57884077  0.22334052     0.19200
C2233       C  0.19914988  0.62856196  0.13231276    -0.06600
C2234       C  0.22993006  0.64417462  0.12632951    -0.17800
C2235       C  0.23907704  0.65825085  0.10620509     0.10600
C2236       C  0.21721434  0.65860980  0.09208407    -0.06600
C2237       C  0.18647431  0.64381939  0.09849762    -0.17800
C2238       C  0.17714462  0.62867017  0.11829890     0.10600
S2239       S  0.27859369  0.67359978  0.09918775    -0.32800
S2240       S  0.13696994  0.61064771  0.12449315    -0.32800
H2241       H  0.13576290  0.59145019  0.14122384     0.28600
H2242       H  0.27246330  0.66393906  0.07745236     0.28600
H2243       H  0.24682478  0.64398113  0.13702695     0.19200
H2244       H  0.16948203  0.64443706  0.08814791     0.19200
C2245       C  0.20129022  0.57245080  0.13122790    -0.06600
C2246       C  0.23232317  0.58273281  0.12828616    -0.17800
C2247       C  0.24349417  0.57917550  0.10839067     0.10600
C2248       C  0.22276081  0.56398380  0.09104608    -0.06600
C2249       C  0.19157631  0.55364035  0.09430713    -0.17800
C2250       C  0.18066512  0.55738606  0.11411789     0.10600
S2251       S  0.28425215  0.59508271  0.10565998    -0.32800
S2252       S  0.14009428  0.54212354  0.11641072    -0.32800
H2253       H  0.13827368  0.53838759  0.13895311     0.28600
H2254       H  0.29286389  0.60913200  0.12613775     0.28600
H2255       H  0.24793462  0.59461626  0.14150708     0.19200
H2256       H  0.17516079  0.54158724  0.08152332     0.19200
C2257       C  0.16505648  0.54973923  0.20680356    -0.06600
C2258       C  0.13959197  0.52054703  0.20371758    -0.17800
C2259       C  0.12975127  0.99833371  0.21989432     0.10600
C2260       C  0.14490465  0.00568025  0.24017495    -0.06600
C2261       C  0.17086948  0.53478654  0.24297774    -0.17800
C2262       C  0.18143783  0.55646253  0.22645140     0.10600
S2263       S  0.09863065  0.96089215  0.21319001    -0.32800
S2264       S  0.21643133  0.59174081  0.23126758    -0.32800
H2265       H  0.22680011  0.59525398  0.20982077     0.28600
H2266       H  0.11109173  0.94525203  0.22412445     0.28600
H2267       H  0.12754534  0.51486161  0.18835802     0.19200
H2268       H  0.18310897  0.54093527  0.25826196     0.19200
C2269       C  0.27822428  0.67016088  0.33621922    -0.06600
C2270       C  0.26320012  0.67327868  0.31825459    -0.17800
C2271       C  0.23421050  0.66985873  0.31995453     0.10600
C2272       C  0.21876854  0.66173306  0.34006348    -0.06600
C2273       C  0.23446083  0.66006490  0.35835342    -0.17800
C2274       C  0.26408284  0.66455472  0.35672853     0.10600
S2275       S  0.21918011  0.67772262  0.29588966    -0.32800
S2276       S  0.28217791  0.66270351  0.38147078    -0.32800
H2277       H  0.31134196  0.67215325  0.37328379     0.28600
H2278       H  0.20887697  0.69531775  0.30679075     0.28600
H2279       H  0.27395942  0.67804880  0.30256858     0.19200
H2280       H  0.22352475  0.65502502  0.37403150     0.19200
C2281       C  0.38902412  0.66404994  0.32772344    -0.06600
C2282       C  0.40067072  0.65978264  0.30838631    -0.17800
C2283       C  0.42997131  0.66365263  0.30724798     0.10600
C2284       C  0.44820460  0.67059700  0.32626315    -0.06600
C2285       C  0.43606499  0.67437807  0.34578356    -0.17800
C2286       C  0.40692303  0.67114863  0.34673473     0.10600
S2287       S  0.44241624  0.66028244  0.28068702    -0.32800
S2288       S  0.39417734  0.67649762  0.37280875    -0.32800
H2289       H  0.36287060  0.66204046  0.36816498     0.28600
H2290       H  0.46967555  0.68852477  0.28222449     0.28600
H2291       H  0.38742060  0.65487555  0.29369509     0.19200
H2292       H  0.44912233  0.67944228  0.36064453     0.19200
C2293       C  0.02998761  0.70031386  0.42850769    -0.06600
C2294       C  0.99916034  0.68879597  0.43383806    -0.17800
C2295       C  0.99059878  0.70055717  0.45135454     0.10600
C2296       C  0.01326357  0.72513779  0.46360263    -0.06600
C2297       C  0.04391980  0.73641531  0.45863496    -0.17800
C2298       C  0.05258577  0.72402109  0.44171766     0.10600
S2299       S  0.45040163  0.68319927  0.45706558    -0.32800
S2300       S  0.09297634  0.74012409  0.43803069    -0.32800
H2301       H  0.09129107  0.71192801  0.44191746     0.28600
H2302       H  0.45134086  0.70796570  0.46809376     0.28600
H2303       H  0.98148568  0.67057588  0.42419863     0.19200
H2304       H  0.06135699  0.75479029  0.46834885     0.19200
C2305       C  0.17836686  0.72718205  0.42441932    -0.06600
C2306       C  0.16556910  0.72666496  0.44468719    -0.17800
C2307       C  0.18228782  0.73224329  0.46389129     0.10600
C2308       C  0.21247986  0.73768773  0.46301064    -0.06600
C2309       C  0.22501712  0.73751110  0.44280317    -0.17800
C2310       C  0.20892566  0.73370095  0.42358076     0.10600
S2311       S  0.16340906  0.73171338  0.48877511    -0.32800
S2312       S  0.22922109  0.73877188  0.39860206    -0.32800
H2313       H  0.21425756  0.75175269  0.38741587     0.28600
H2314       H  0.18956774  0.75206290  0.50054611     0.28600
H2315       H  0.14205515  0.72112865  0.44569303     0.19200
H2316       H  0.24804502  0.74140759  0.44194202     0.19200
C2317       C  0.46557017  0.59469650  0.20155312    -0.06600
C2318       C  0.47178472  0.62093157  0.21328075    -0.17800
C2319       C  0.48691676  0.62752501  0.23323126     0.10600
C2320       C  0.49426584  0.60643015  0.24253340    -0.06600
C2321       C  0.48958904  0.58108502  0.23021534    -0.17800
C2322       C  0.47629639  0.57560819  0.20959318     0.10600
S2323       S  0.99835825  0.66435184  0.24503636    -0.32800
S2324       S  0.47452456  0.54454764  0.19409729    -0.32800
H2325       H  0.47358066  0.55633418  0.17371468     0.28600
H2326       H  0.02724357  0.66994693  0.25187363     0.28600
H2327       H  0.46454850  0.63624822  0.20691750     0.19200
H2328       H  0.49687711  0.56577871  0.23650808     0.19200
C2329       C  0.16316470  0.60876916  0.20856671    -0.06600
C2330       C  0.13324329  0.58971263  0.21571272    -0.17800
C2331       C  0.12143858  0.59782742  0.23334352     0.10600
C2332       C  0.13960623  0.62621282  0.24397459    -0.06600
C2333       C  0.16941047  0.64546957  0.23662355    -0.17800
C2334       C  0.18137463  0.63720407  0.21914034     0.10600
S2335       S  0.08360183  0.57012950  0.24203785    -0.32800
S2336       S  0.22011904  0.66410611  0.21149526    -0.32800
H2337       H  0.22691232  0.64323457  0.20160848     0.28600
H2338       H  0.09116596  0.57341609  0.26418891     0.28600
H2339       H  0.11894283  0.56812381  0.20754028     0.19200
H2340       H  0.18365433  0.66715510  0.24469365     0.19200
O2341       O  0.52438443  0.13650372  0.33054164    -0.88900
C2342       C  0.59460053  0.18593412  0.28788161     0.87200
Mg2343     Mg  0.52077072  0.15575887  0.36099707     1.58100
O2344       O  0.59983551  0.12884779  0.31693450    -0.88600
O2345       O  0.52749148  0.09805803  0.31726767    -0.75900
C2346       C  0.65784142  0.21586802  0.40532621     0.92200
O2347       O  0.55878469  0.20896184  0.32172990    -0.75700
O2348       O  0.63457202  0.21913398  0.40458120    -0.83200
Mg2349     Mg  0.53159770  0.16437488  0.30234970     1.58000
C2350       C  0.68740010  0.15682592  0.34241358     0.92100
O2351       O  0.50282886  0.12434190  0.27899231    -0.81500
H2352       H  0.58477608  0.08523769  0.32472546    -0.06800
C2353       C  0.64902638  0.21561311  0.34098959     0.87100
O2354       O  0.54362073  0.13250402  0.37913452    -0.76000
O2355       O  0.57263509  0.16281839  0.29538734    -0.88800
O2356       O  0.66931429  0.14719356  0.32628031    -0.81600
C2357       C  0.62902481  0.13525563  0.26354796     0.92300
C2358       C  0.51032830  0.11263314  0.26358187     0.92100
Mg2359     Mg  0.63418078  0.16061624  0.36836631     1.58000
O2360       O  0.66260155  0.20063283  0.39104512    -0.81500
O2361       O  0.60697418  0.11563451  0.34905958    -0.75700
O2362       O  0.60132708  0.12874245  0.26483621    -0.81600
O2363       O  0.98816354  0.16500426  0.30996101    -0.83300
O2364       O  0.56450686  0.19381382  0.40602325    -0.81600
C2365       C  0.59674063  0.10892584  0.32983285     0.86600
O2366       O  0.59291547  0.16162160  0.37549749    -0.88800
O2367       O  0.63952829  0.18789015  0.34045725    -0.88900
O2368       O  0.63670347  0.22681495  0.35295199    -0.75900
Mg2369     Mg  0.56621990  0.11748182  0.29207639     1.58000
O2370       O  0.64771761  0.14829568  0.27901626    -0.83300
H2371       H  0.49623102  0.09348007  0.33967989    -0.07000
O2372       O  0.56422415  0.19530329  0.35414855    -0.88600
H2373       H  0.57979448  0.23898340  0.34640623    -0.06800
H2374       H  0.57457612  0.12304311  0.39262314    -0.07000
C2375       C  0.56790554  0.21537057  0.34119327     0.86500
C2376       C  0.51506658  0.10883142  0.32957290     0.87100
C2377       C  0.57078043  0.13858687  0.38292812     0.87200
H2378       H  0.66772724  0.23055591  0.33064689    -0.07000
O2379       O  0.62184129  0.19257881  0.29196199    -0.76000
Mg2380     Mg  0.59878032  0.20688212  0.37850780     1.58000
H2381       H  0.59055283  0.20114956  0.27800359    -0.07000
C2382       C  0.97774831  0.17041889  0.32705292     0.92100
O2383       O  0.51800459  0.17742890  0.39306127    -0.83300
C2384       C  0.53770412  0.18947346  0.40822126     0.92200
O2385       O  0.53267593  0.10803189  0.26521501    -0.83200
Mg2386     Mg  0.64335447  0.16854258  0.31050121     1.58200
O2387       O  0.49103281  0.17378791  0.34531393    -0.81600
O2388       O  0.67924101  0.16309412  0.36022639    -0.83300
C2389       C  0.67478331  0.07156374  0.18853609     0.01800
C2390       C  0.67385407  0.09920101  0.18925098     0.01700
C2391       C  0.68177805  0.11752178  0.17065686    -0.18800
C2392       C  0.69071984  0.10901243  0.15168810     0.01800
C2393       C  0.69196329  0.08182693  0.15115001     0.01700
C2394       C  0.68426850  0.06353223  0.16953778    -0.18800
H2395       H  0.68516838  0.04257411  0.16892872     0.03800
H2396       H  0.68058284  0.13832185  0.17083071     0.03800
C2397       C  0.91484459  0.05965245  0.18388394     0.01800
C2398       C  0.94425029  0.08573054  0.18282697     0.01700
C2399       C  0.95267587  0.10423736  0.16437722    -0.18800
C2400       C  0.93266156  0.09697493  0.14663951     0.01800
C2401       C  0.90387230  0.06965984  0.14723182     0.01700
C2402       C  0.89516312  0.05182172  0.16602725    -0.18800
H2403       H  0.87274688  0.03159526  0.16676447     0.03800
H2404       H  0.97506013  0.12451725  0.16383032     0.03800
O2405       O  0.64398788  0.44472264  0.33674619    -0.88900
C2406       C  0.57601694  0.42575338  0.37954783     0.87200
Mg2407     Mg  0.64734172  0.46660923  0.30648164     1.58100
O2408       O  0.56978460  0.36276506  0.35052855    -0.88600
O2409       O  0.64230499  0.40381345  0.34959147    -0.75900
C2410       C  0.51031312  0.38902235  0.26086851     0.92200
O2411       O  0.60978413  0.48255219  0.34516659    -0.75700
O2412       O  0.53319420  0.41606178  0.26108893    -0.83200
Mg2413     Mg  0.63823016  0.46665573  0.36466730     1.58000
C2414       C  0.98234542  0.30224352  0.32456411     0.92100
O2415       O  0.66798896  0.45600850  0.38732901    -0.81500
H2416       H  0.58520549  0.33460010  0.34251230    -0.06800
C2417       C  0.51960180  0.39914386  0.32533797     0.87100
O2418       O  0.62546655  0.42071162  0.28833705    -0.76000
O2419       O  0.59799253  0.42429968  0.37237890    -0.88800
O2420       O  0.49801228  0.31175455  0.34191632    -0.81600
C2421       C  0.54174087  0.34121685  0.40386259     0.92300
C2422       C  0.66371680  0.43626371  0.40175198     0.92100
Mg2423     Mg  0.53582798  0.35963233  0.29854057     1.58000
O2424       O  0.50691357  0.36977607  0.27534534    -0.81500
O2425       O  0.56345533  0.34298165  0.31813693    -0.75700
O2426       O  0.56966674  0.36180363  0.40219703    -0.81600
O2427       O  0.68113240  0.01139243  0.35657015    -0.83300
O2428       O  0.60497521  0.46544813  0.26060208    -0.81600
C2429       C  0.57316444  0.34617679  0.33747925     0.86600
O2430       O  0.57623297  0.40185796  0.29057647    -0.88800
O2431       O  0.53006867  0.38180065  0.32642787    -0.88900
O2432       O  0.53111490  0.42202013  0.31284533    -0.75900
Mg2433     Mg  0.60434046  0.38527929  0.37502399     1.58000
O2434       O  0.52263184  0.33600823  0.38875955    -0.83300
H2435       H  0.67297914  0.43110028  0.32716898    -0.07000
O2436       O  0.60375704  0.46337155  0.31250725    -0.88600
H2437       H  0.58746824  0.49064563  0.32103793    -0.06800
H2438       H  0.59445240  0.38108428  0.27383014    -0.07000
C2439       C  0.59996436  0.47943512  0.32583121     0.86500
C2440       C  0.65412104  0.42706728  0.33746614     0.87100
C2441       C  0.59833253  0.40046611  0.28362760     0.87200
H2442       H  0.50061090  0.39508289  0.33551290    -0.07000
O2443       O  0.54878333  0.40554924  0.37503341    -0.76000
Mg2444     Mg  0.56947653  0.44084746  0.28755432     1.58000
H2445       H  0.58009328  0.44516929  0.38938432    -0.07000
C2446       C  0.68943383  0.02630304  0.33900684     0.92100
O2447       O  0.65154058  0.49000163  0.27487798    -0.83300
C2448       C  0.63322743  0.48534875  0.25934664     0.92200
O2449       O  0.64044237  0.40964225  0.40106369    -0.83200
Mg2450     Mg  0.52643994  0.35963252  0.35690345     1.58200
O2451       O  0.67535321  0.01448423  0.32134275    -0.81600
O2452       O  0.99186905  0.31664485  0.30688528    -0.83300
O2453       O  0.80837662  0.35963073  0.33971521    -0.88900
C2454       C  0.86438784  0.43051151  0.37989395     0.87200
Mg2455     Mg  0.82443388  0.35554053  0.30847738     1.58100
O2456       O  0.80484037  0.43707523  0.35586075    -0.88600
O2457       O  0.77239657  0.36481346  0.35514652    -0.75900
C2458       C  0.87970438  0.48974281  0.26307333     0.92200
O2459       O  0.88205261  0.39245333  0.34469895    -0.75700
O2460       O  0.88372695  0.46698629  0.26429620    -0.83200
Mg2461     Mg  0.83943847  0.36641018  0.36587817     1.58000
C2462       C  0.82480005  0.02092385  0.32927442     0.92100
O2463       O  0.80132258  0.33866905  0.39017951    -0.81500
H2464       H  0.76037061  0.42155529  0.35122487    -0.06800
C2465       C  0.88765949  0.48470628  0.32720394     0.87100
O2466       O  0.79914752  0.37737818  0.29204038    -0.76000
O2467       O  0.84016945  0.40842122  0.37362529    -0.88800
O2468       O  0.82509182  0.50863232  0.34714589    -0.81600
C2469       C  0.81962374  0.46646725  0.40984881     0.92300
C2470       C  0.79106117  0.34632973  0.40634074     0.92100
Mg2471     Mg  0.82842513  0.46746409  0.30299343     1.58000
O2472       O  0.86483947  0.49502036  0.27737516    -0.81500
O2473       O  0.78667260  0.44119770  0.32483036    -0.75700
O2474       O  0.81461705  0.43934206  0.40747961    -0.81600
O2475       O  0.83828045  0.32208337  0.35711102    -0.83300
O2476       O  0.85666623  0.39725259  0.26251922    -0.81600
C2477       C  0.78307162  0.43302436  0.34447603     0.86600
O2478       O  0.82932103  0.42663993  0.29544667    -0.88800
O2479       O  0.86023783  0.47589460  0.32920044    -0.88900
O2480       O  0.89697660  0.47111167  0.31477129    -0.75900
Mg2481     Mg  0.79646068  0.40380697  0.38012632     1.58000
O2482       O  0.82866203  0.48506624  0.39411032    -0.83300
H2483       H  0.76428615  0.33261220  0.33229756    -0.07000
O2484       O  0.86435132  0.39885441  0.31422101    -0.88600
H2485       H  0.90863497  0.41310333  0.31857205    -0.06800
H2486       H  0.78943899  0.40873511  0.27971120    -0.07000
C2487       C  0.88594235  0.40183342  0.32533531     0.86500
C2488       C  0.78109991  0.35135573  0.34200958     0.87100
C2489       C  0.80549635  0.40465976  0.28855374     0.87200
H2490       H  0.90404351  0.50383001  0.33683272    -0.07000
O2491       O  0.87055078  0.45777796  0.37645977    -0.76000
Mg2492     Mg  0.87378909  0.43228449  0.28993602     1.58000
H2493       H  0.88087873  0.42655950  0.38822881    -0.07000
C2494       C  0.84365337  0.31381679  0.33897348     0.92100
O2495       O  0.84361808  0.35203653  0.27639500    -0.83300
C2496       C  0.85464185  0.37125788  0.26115886     0.92200
O2497       O  0.78845965  0.36996919  0.40611474    -0.83200
Mg2498     Mg  0.84534498  0.48039447  0.36077031     1.58200
O2499       O  0.84574330  0.32841468  0.32175139    -0.81600
O2500       O  0.82788226  0.01045559  0.31130904    -0.83300
C2501       C  0.90204557  0.34099129  0.18614561     0.01800
C2502       C  0.93025295  0.34149093  0.18564549     0.01700
C2503       C  0.93808824  0.33108945  0.16675779    -0.18800
C2504       C  0.91896426  0.32175959  0.14827158     0.01800
C2505       C  0.89236588  0.32418503  0.14869646     0.01700
C2506       C  0.88410745  0.33338176  0.16751949    -0.18800
H2507       H  0.86308557  0.33415384  0.16777665     0.03800
H2508       H  0.95912303  0.33041822  0.16640992     0.03800
O2509       O  0.72185371  0.03042598  0.00452326    -0.88900
C2510       C  0.73925071  0.47875977  0.04708593     0.87200
Mg2511     Mg  0.69987284  0.01338990  0.97386907     1.58100
O2512       O  0.80299331  0.03438661  0.01820282    -0.88600
O2513       O  0.76392960  0.06803862  0.01782967    -0.75900
C2514       C  0.77027941  0.44741971  0.92974682     0.92200
O2515       O  0.68120929  0.45755640  0.01242266    -0.75700
O2516       O  0.74482468  0.44655363  0.92992754    -0.83200
Mg2517     Mg  0.69940798  0.50175589  0.03219534     1.58000
C2518       C  0.86120169  0.00602939  0.99235951     0.92100
O2519       O  0.71157898  0.04164619  0.05576054    -0.81500
H2520       H  0.83222951  0.07766892  0.01013272    -0.06800
C2521       C  0.76184212  0.44760302  0.99402745     0.87100
O2522       O  0.74573671  0.03490050  0.95602128    -0.76000
O2523       O  0.74132880  0.50215244  0.03928586    -0.88800
O2524       O  0.85145084  0.01172670  0.00969422    -0.81600
C2525       C  0.82380850  0.02600982  0.07210609     0.92300
C2526       C  0.73159925  0.05471101  0.07061951     0.92100
Mg2527     Mg  0.80335479  0.00167049  0.96679921     1.58000
O2528       O  0.78948571  0.45978589  0.94511987    -0.81500
O2529       O  0.82249408  0.04696850  0.98580429    -0.75700
O2530       O  0.80340166  0.03355437  0.07017332    -0.81600
O2531       O  0.65487502  0.50101012  0.02452870    -0.83300
O2532       O  0.70032882  0.47229360  0.92844786    -0.81600
C2533       C  0.81984949  0.05397369  0.00512711     0.86600
O2534       O  0.76236386  0.00276890  0.95926665    -0.88800
O2535       O  0.78110940  0.47502959  0.99484065    -0.88900
O2536       O  0.73876623  0.43759471  0.98158663    -0.75900
Mg2537     Mg  0.78130753  0.04666323  0.04281138     1.58000
O2538       O  0.82975006  0.01319877  0.05666471    -0.83300
H2539       H  0.73744833  0.07372071  0.99576354    -0.07000
O2540       O  0.70036196  0.47166153  0.98013472    -0.88600
H2541       H  0.67107715  0.42806944  0.98727389    -0.06800
H2542       H  0.78486652  0.04130291  0.94229786    -0.07000
C2543       C  0.68346563  0.45152707  0.99282237     0.86500
C2544       C  0.74058793  0.05795836  0.00569800     0.87100
C2545       C  0.76513053  0.02668912  0.95195085     0.87200
H2546       H  0.76439359  0.43186080  0.00439597    -0.07000
O2547       O  0.75914343  0.47111089  0.04332124    -0.76000
Mg2548     Mg  0.72188056  0.45879082  0.95590173     1.58000
H2549       H  0.71977327  0.46418028  0.05696020    -0.07000
C2550       C  0.64098387  0.49756323  0.00659800     0.92100
O2551       O  0.67534824  0.49418282  0.94201791    -0.83300
C2552       C  0.68034064  0.48044591  0.92671368     0.92200
O2553       O  0.75784040  0.05756206  0.06906225    -0.83200
Mg2554     Mg  0.80458921  0.49345169  0.02495439     1.58200
O2555       O  0.65340065  0.49781365  0.98871483    -0.81600
O2556       O  0.84608762  0.99955804  0.97478940    -0.83300
O2557       O  0.78175611  0.30633284  0.99422922    -0.88900
C2558       C  0.76505115  0.23502227  0.95451649     0.87200
Mg2559     Mg  0.80279495  0.31074406  0.02496393     1.58100
O2560       O  0.70062765  0.22881800  0.98053157    -0.88600
O2561       O  0.73960264  0.30117287  0.98062091    -0.75900
C2562       C  0.72574779  0.17727231  0.07216563     0.92200
O2563       O  0.82167603  0.27274701  0.98847222    -0.75700
O2564       O  0.75198225  0.20077326  0.07095428    -0.83200
Mg2565     Mg  0.80446851  0.29863663  0.96754685     1.58000
C2566       C  0.63745745  0.14482727  0.00674658     0.92100
O2567       O  0.79339153  0.32589657  0.94325176    -0.81500
H2568       H  0.67086929  0.24328168  0.98528343    -0.06800
C2569       C  0.73663611  0.18095082  0.00805744     0.87100
O2570       O  0.75603613  0.28867156  0.04193097    -0.76000
O2571       O  0.76297378  0.25713641  0.96076863    -0.88800
O2572       O  0.64953470  0.15785518  0.98896096    -0.81600
C2573       C  0.68309848  0.19944382  0.92709489     0.92300
C2574       C  0.77331289  0.31966236  0.92863880     0.92100
Mg2575     Mg  0.69507463  0.19776811  0.03257838     1.58000
O2576       O  0.70568642  0.17066910  0.05746319    -0.81500
O2577       O  0.67800120  0.22342318  0.01143252    -0.75700
O2578       O  0.70484846  0.22674494  0.92907644    -0.81600
O2579       O  0.84777328  0.34256535  0.97513633    -0.83300
O2580       O  0.79382540  0.27028709  0.07112030    -0.81600
C2581       C  0.68254402  0.23214435  0.99191988     0.86600
O2582       O  0.73671787  0.23926893  0.03927300    -0.88800
O2583       O  0.71806309  0.18986025  0.00619930    -0.88900
O2584       O  0.75988895  0.19470724  0.02024506    -0.75900
Mg2585     Mg  0.72356563  0.26201058  0.95597023     1.58000
O2586       O  0.67522378  0.18075520  0.94264068    -0.83300
H2587       H  0.76585445  0.33402676  0.00248925    -0.07000
O2588       O  0.79923455  0.26721633  0.01949115    -0.88600
H2589       H  0.82864176  0.25237588  0.01440621    -0.06800
H2590       H  0.71525115  0.25780218  0.05477866    -0.07000
C2591       C  0.81709780  0.26374545  0.00793906     0.86500
C2592       C  0.76290845  0.31492758  0.99274397     0.87100
C2593       C  0.73511006  0.26151839  0.04581529     0.87200
H2594       H  0.73349833  0.16155366  0.99859006    -0.07000
O2595       O  0.74458771  0.20778909  0.95867301    -0.76000
Mg2596     Mg  0.77594479  0.23440843  0.04445818     1.58000
H2597       H  0.78511065  0.23897483  0.94571308    -0.07000
C2598       C  0.86206712  0.35244400  0.99290242     0.92100
O2599       O  0.82613048  0.31507258  0.05692558    -0.83300
C2600       C  0.81691488  0.29686494  0.07279715     0.92200
O2601       O  0.74713335  0.29609824  0.92970385    -0.83200
Mg2602     Mg  0.69764428  0.18548422  0.97513801     1.58200
O2603       O  0.85066559  0.33882699  0.01066902    -0.81600
O2604       O  0.65167106  0.15404788  0.02464352    -0.83300
O2605       O  0.52332758  0.21784687  0.99323528    -0.88900
C2606       C  0.97223584  0.23549310  0.95068946     0.87200
Mg2607     Mg  0.50577375  0.19634041  0.02427758     1.58100
O2608       O  0.53061859  0.29896245  0.97862734    -0.88600
O2609       O  0.56178785  0.25751584  0.97857669    -0.75900
C2610       C  0.94825433  0.27561562  0.07055355     0.92200
O2611       O  0.95122014  0.17959903  0.98625149    -0.75700
O2612       O  0.94335309  0.24826319  0.07004250    -0.83200
Mg2613     Mg  0.99449615  0.19498900  0.96566892     1.58000
C2614       C  0.50887975  0.36186701  0.00528012     0.92100
O2615       O  0.53308276  0.20469700  0.94137230    -0.81500
H2616       H  0.57450121  0.32578785  0.98657746    -0.06800
C2617       C  0.94502359  0.26343355  0.00571142     0.87100
O2618       O  0.53008047  0.24238796  0.04209011    -0.76000
O2619       O  0.99605496  0.23712875  0.95725484    -0.88800
O2620       O  0.50992078  0.34969883  0.98751881    -0.81600
C2621       C  0.52170170  0.32100009  0.92567361     0.92300
C2622       C  0.54707406  0.22380495  0.92627496     0.92100
Mg2623     Mg  0.50207546  0.30338243  0.03171866     1.58000
O2624       O  0.96412104  0.29474409  0.05598647    -0.81500
O2625       O  0.54510103  0.31806301  0.01120314    -0.75700
O2626       O  0.53012475  0.30109841  0.92676142    -0.81600
O2627       O  0.99437632  0.15107865  0.97441004    -0.83300
O2628       O  0.96556774  0.19840950  0.07108469    -0.81600
C2629       C  0.55098933  0.31487401  0.99171272     0.86600
O2630       O  0.49953738  0.26107858  0.04010368    -0.88800
O2631       O  0.97279659  0.28067743  0.00425711    -0.88900
O2632       O  0.93397474  0.24080637  0.01842514    -0.75900
Mg2633     Mg  0.54145726  0.27618096  0.95355259     1.58000
O2634       O  0.50796346  0.32525262  0.94128310    -0.83300
H2635       H  0.56648048  0.23137937  0.00144671    -0.07000
O2636       O  0.96509308  0.19923805  0.01877788    -0.88600
H2637       H  0.92139745  0.17171132  0.01063392    -0.06800
H2638       H  0.53887000  0.28206356  0.05654344    -0.07000
C2639       C  0.94497275  0.18295959  0.00563278     0.86500
C2640       C  0.55105439  0.23512922  0.99152208     0.87100
C2641       C  0.52319029  0.26257759  0.04688504     0.87200
H2642       H  0.92983866  0.26731157  0.99561377    -0.07000
O2643       O  0.96533603  0.25567014  0.95556478    -0.76000
Mg2644     Mg  0.95399552  0.22244037  0.04376246     1.58000
H2645       H  0.95645767  0.21593677  0.94112740    -0.07000
C2646       C  0.98990504  0.13701598  0.99223637     0.92100
O2647       O  0.98647358  0.17296226  0.05642715    -0.83300
C2648       C  0.97271215  0.17753254  0.07192440     0.92200
O2649       O  0.55142201  0.25090005  0.92691160    -0.83200
Mg2650     Mg  0.98988325  0.30187876  0.97329662     1.58200
O2651       O  0.98657861  0.14835973  0.00976382    -0.81600
O2652       O  0.50382653  0.34778729  0.02314126    -0.83300
O2653       O  0.64218346  0.02402751  0.67065740    -0.88900
C2654       C  0.69607058  0.09664243  0.71009910     0.87200
Mg2655     Mg  0.65647162  0.01910417  0.63899510     1.58100
O2656       O  0.63540756  0.09964696  0.68435836    -0.88600
O2657       O  0.60476848  0.02719052  0.68541221    -0.75900
C2658       C  0.71213931  0.15418795  0.59254048     0.92200
O2659       O  0.71573859  0.05957675  0.67454028    -0.75700
O2660       O  0.71700363  0.13182592  0.59296115    -0.83200
Mg2661     Mg  0.67455501  0.03329972  0.69672378     1.58000
C2662       C  0.65477660  0.18393067  0.65760023     0.92100
O2663       O  0.63912757  0.00608729  0.72303853    -0.81500
H2664       H  0.59080509  0.08300007  0.67936173    -0.06800
C2665       C  0.71839561  0.14861783  0.65612066     0.87100
O2666       O  0.63094455  0.04049285  0.62266889    -0.76000
O2667       O  0.67246140  0.07390395  0.70376651    -0.88800
O2668       O  0.65345134  0.17057814  0.67528098    -0.81600
C2669       C  0.64626749  0.12992116  0.73698926     0.92300
C2670       C  0.62557139  0.01243186  0.73777849     0.92100
Mg2671     Mg  0.65935741  0.13028136  0.63161199     1.58000
O2672       O  0.69578468  0.15735855  0.60671368    -0.81500
O2673       O  0.61733363  0.10335932  0.65316954    -0.75700
O2674       O  0.64307789  0.10339997  0.73596824    -0.81600
O2675       O  0.67645630  0.49034171  0.68878277    -0.83300
O2676       O  0.69287654  0.06021844  0.59198826    -0.81600
C2677       C  0.61360206  0.09500309  0.67278403     0.86600
O2678       O  0.66144129  0.08988523  0.62394113    -0.88800
O2679       O  0.69084207  0.13915828  0.65799929    -0.88900
O2680       O  0.72830702  0.13550374  0.64374188    -0.75900
Mg2681     Mg  0.62749105  0.06724164  0.70932431     1.58000
O2682       O  0.65692262  0.14847582  0.72133943    -0.83300
H2683       H  0.59852939  0.99419828  0.66384678    -0.07000
O2684       O  0.69735673  0.06289082  0.64335031    -0.88600
H2685       H  0.74188111  0.07884343  0.64804632    -0.06800
H2686       H  0.62092830  0.07087552  0.60904696    -0.07000
C2687       C  0.71918985  0.06730558  0.65480997     0.86500
C2688       C  0.61461457  0.01403684  0.67303916     0.87100
C2689       C  0.63736279  0.06743701  0.61793986     0.87200
H2690       H  0.73441287  0.16798623  0.66574938    -0.07000
O2691       O  0.70145762  0.12346131  0.70595382    -0.76000
Mg2692     Mg  0.70674372  0.09634430  0.61890215     1.58000
H2693       H  0.71276756  0.09364795  0.71901504    -0.07000
C2694       C  0.67889957  0.47985957  0.67059302     0.92100
O2695       O  0.67187663  0.01344390  0.60562911    -0.83300
C2696       C  0.68381899  0.03186569  0.58992542     0.92200
O2697       O  0.62003420  0.03413811  0.73578978    -0.83200
Mg2698     Mg  0.67507341  0.14387822  0.68912108     1.58200
O2699       O  0.67643608  0.99107856  0.65280075    -0.81600
O2700       O  0.65848323  0.17392966  0.63959601    -0.83300
C2701       C  0.61306352  0.18274557  0.84940640     0.01800
C2702       C  0.58605722  0.18461506  0.84986859     0.01700
C2703       C  0.56682718  0.17491191  0.83149343    -0.18800
C2704       C  0.57490736  0.16529704  0.81245315     0.01800
C2705       C  0.60321480  0.16604662  0.81167202     0.01700
C2706       C  0.62117037  0.17355094  0.83037308    -0.18800
H2707       H  0.64163590  0.17176568  0.83017699     0.03800
H2708       H  0.54546771  0.17497031  0.83196037     0.03800
C2709       C  0.56627245  0.40791269  0.85498315     0.01800
C2710       C  0.59579803  0.43411878  0.85452441     0.01700
C2711       C  0.60632348  0.45083274  0.83532784    -0.18800
C2712       C  0.58838607  0.44195570  0.81654815     0.01800
C2713       C  0.55843285  0.41679589  0.81724397     0.01700
C2714       C  0.54767165  0.40020601  0.83646426    -0.18800
H2715       H  0.52482451  0.38058595  0.83684691     0.03800
H2716       H  0.62908118  0.47060751  0.83485454     0.03800
O2717       O  0.96811859  0.11967151  0.67390624    -0.88900
C2718       C  0.90060369  0.09968699  0.71778544     0.87200
Mg2719     Mg  0.96990163  0.14058361  0.64315153     1.58100
O2720       O  0.89602937  0.03651017  0.68962401    -0.88600
O2721       O  0.96828089  0.08000289  0.68747875    -0.75900
C2722       C  0.83302266  0.05686192  0.59998080     0.92200
O2723       O  0.93270745  0.15634150  0.68196710    -0.75700
O2724       O  0.85540623  0.08407991  0.59971302    -0.83200
Mg2725     Mg  0.96243012  0.14209246  0.70163786     1.58000
C2726       C  0.80950234  0.47146131  0.66446454     0.92100
O2727       O  0.99293432  0.13400324  0.72522139    -0.81500
H2728       H  0.91325830  0.00995856  0.68137174    -0.06800
C2729       C  0.84304670  0.06984074  0.66465008     0.87100
O2730       O  0.94873548  0.09407138  0.62582228    -0.76000
O2731       O  0.92301193  0.09916108  0.71050768    -0.88800
O2732       O  0.82359155  0.48289413  0.68220465    -0.81600
C2733       C  0.86956060  0.01574801  0.74349207     0.92300
C2734       C  0.99003710  0.11489114  0.73975959     0.92100
Mg2735     Mg  0.86008895  0.03092258  0.63801891     1.58000
O2736       O  0.82823699  0.03939956  0.61607825    -0.81500
O2737       O  0.88998782  0.01665186  0.65722147    -0.75700
O2738       O  0.89738014  0.03675466  0.74171964    -0.81600
O2739       O  0.50547802  0.18598509  0.69197200    -0.83300
O2740       O  0.92516478  0.13451641  0.59784911    -0.81600
C2741       C  0.90012891  0.02045723  0.67649104     0.86600
O2742       O  0.89945742  0.07365612  0.62945756    -0.88800
O2743       O  0.85393313  0.05283092  0.66579588    -0.88900
O2744       O  0.85368357  0.09223789  0.65169248    -0.75900
Mg2745     Mg  0.93119853  0.06102641  0.71365130     1.58000
O2746       O  0.85037945  0.00961552  0.72828886    -0.83300
H2747       H  0.99768446  0.10683030  0.66426072    -0.07000
O2748       O  0.92589682  0.13584196  0.64975876    -0.88600
H2749       H  0.90895667  0.16266886  0.65796086    -0.06800
H2750       H  0.91797202  0.05329226  0.61254374    -0.07000
C2751       C  0.92206952  0.15213666  0.66281998     0.86500
C2752       C  0.97902519  0.10268778  0.67481739     0.87100
C2753       C  0.92165967  0.07287006  0.62202844     0.87200
H2754       H  0.82438166  0.06586985  0.67513661    -0.07000
O2755       O  0.87363370  0.07836277  0.71382255    -0.76000
Mg2756     Mg  0.89112025  0.11116025  0.62563249     1.58000
H2757       H  0.90401130  0.11913737  0.72731358    -0.07000
C2758       C  0.51343518  0.20008093  0.67406790     0.92100
O2759       O  0.97206662  0.16294797  0.61100423    -0.83300
C2760       C  0.95258628  0.15613432  0.59589741     0.92200
O2761       O  0.96820991  0.08738379  0.73905096    -0.83200
Mg2762     Mg  0.85204442  0.03180401  0.69639294     1.58200
O2763       O  0.99680147  0.18909448  0.65724196    -0.81600
O2764       O  0.81836226  0.48623554  0.64686062    -0.83300
O2765       O  0.85824291  0.30458669  0.66244216    -0.88900
C2766       C  0.92598091  0.35913694  0.62037601     0.87200
Mg2767     Mg  0.85213601  0.32079585  0.69307065     1.58100
O2768       O  0.93618680  0.30361256  0.64728659    -0.88600
O2769       O  0.86360631  0.26822363  0.64775209    -0.75900
C2770       C  0.98760746  0.38600300  0.73846412     0.92200
O2771       O  0.88769331  0.37733951  0.65477537    -0.75700
O2772       O  0.96423506  0.38907900  0.73735930    -0.83200
Mg2773     Mg  0.86291496  0.33290671  0.63503915     1.58000
C2774       C  0.52282629  0.33197181  0.67382002     0.92100
O2775       O  0.83538265  0.29183251  0.61281610    -0.81500
H2776       H  0.92296792  0.26010934  0.65401596    -0.06800
C2777       C  0.98068623  0.38950968  0.67383439     0.87100
O2778       O  0.87714894  0.29997178  0.71098330    -0.76000
O2779       O  0.90521538  0.33492319  0.62757586    -0.88800
O2780       O  0.00878508  0.32934093  0.65612710    -0.81600
C2781       C  0.96512127  0.31379361  0.59429724     0.92300
C2782       C  0.84285544  0.28193336  0.59635644     0.92100
Mg2783     Mg  0.96764418  0.33330317  0.69975691     1.58000
O2784       O  0.99391449  0.37214770  0.72392357    -0.81500
O2785       O  0.94253373  0.28943028  0.67927460    -0.75700
O2786       O  0.93737229  0.30711829  0.59550986    -0.81600
O2787       O  0.81846559  0.33085638  0.64256114    -0.83300
O2788       O  0.89339963  0.36256054  0.73841253    -0.81600
C2789       C  0.93364665  0.28346238  0.65973890     0.86600
O2790       O  0.92561890  0.33239915  0.70727002    -0.88800
O2791       O  0.97287394  0.36220746  0.67251705    -0.88900
O2792       O  0.96684946  0.39875651  0.68605928    -0.75900
Mg2793     Mg  0.90203245  0.29142330  0.62262066     1.58000
O2794       O  0.98376022  0.32733085  0.60971428    -0.83300
H2795       H  0.83198407  0.26079558  0.67066076    -0.07000
O2796       O  0.89384192  0.36331827  0.68689498    -0.88600
H2797       H  0.90653770  0.40668535  0.68009409    -0.06800
H2798       H  0.91046473  0.29424905  0.72457193    -0.07000
C2799       C  0.89618385  0.38334691  0.67438139     0.86500
C2800       C  0.85031494  0.27728072  0.66070884     0.87100
C2801       C  0.90487764  0.30851188  0.71485281     0.87200
H2802       H  0.99918861  0.40579580  0.66390001    -0.07000
O2803       O  0.95371920  0.36762853  0.62423136    -0.76000
Mg2804     Mg  0.92862625  0.37645568  0.71120090     1.58000
H2805       H  0.92040419  0.37370130  0.61100213    -0.07000
C2806       C  0.80716558  0.33370485  0.66013763     0.92100
O2807       O  0.84628311  0.33928041  0.72499667    -0.83300
C2808       C  0.86509197  0.35349208  0.74024761     0.92200
O2809       O  0.86737434  0.28089844  0.59601425    -0.83200
Mg2810     Mg  0.97814226  0.34577722  0.64169758     1.58200
O2811       O  0.81967961  0.33505665  0.67829101    -0.81600
O2812       O  0.51281861  0.33547381  0.69183311    -0.83300
C2813       C  0.81000994  0.39011199  0.85009487     0.01800
C2814       C  0.81039960  0.41808857  0.85071784     0.01700
C2815       C  0.81989221  0.43700110  0.83259672    -0.18800
C2816       C  0.82990577  0.42892764  0.81384956     0.01800
C2817       C  0.82892718  0.40032632  0.81308289     0.01700
C2818       C  0.81887616  0.38130499  0.83130883    -0.18800
H2819       H  0.81818849  0.35953762  0.83096126     0.03800
H2820       H  0.82032071  0.45862917  0.83335092     0.03800
C2821       C  0.50598823  0.23852719  0.48242742     0.01800
C2822       C  0.50856744  0.26769841  0.48163887     0.01700
C2823       C  0.50154862  0.27912216  0.50010536    -0.18800
C2824       C  0.99291879  0.26266896  0.51948575     0.01800
C2825       C  0.99169147  0.23412001  0.52048777     0.01700
C2826       C  0.49787124  0.22227185  0.50187192    -0.18800
H2827       H  0.49637808  0.20013954  0.50252905     0.03800
H2828       H  0.50287212  0.30117299  0.49939989     0.03800
C2829       C  0.73239389  0.24581430  0.48247090     0.01800
C2830       C  0.75971980  0.27433547  0.48388039     0.01700
C2831       C  0.77911411  0.28096192  0.50176431    -0.18800
C2832       C  0.77132159  0.25997907  0.51858568     0.01800
C2833       C  0.74381262  0.23176602  0.51749281     0.01700
C2834       C  0.72472009  0.22471438  0.49935040    -0.18800
H2835       H  0.70378974  0.20289280  0.49844419     0.03800
H2836       H  0.80030048  0.30257198  0.50262951     0.03800
C2837       C  0.76689896  0.49351940  0.48315807     0.01800
C2838       C  0.73622015  0.48581176  0.47971437     0.01700
C2839       C  0.72022165  0.49042364  0.49646871    -0.18800
C2840       C  0.73413840  0.00254537  0.51655043     0.01800
C2841       C  0.76512111  0.01123770  0.51972947     0.01700
C2842       C  0.78110377  0.50656859  0.50298117    -0.18800
H2843       H  0.80458935  0.51243008  0.50560697     0.03800
H2844       H  0.69660941  0.48416855  0.49394431     0.03800
C2845       C  0.49757211  0.02626402  0.00175335     0.01800
C2846       C  0.52627342  0.02808942  0.00342422     0.01800
C2847       C  0.52820124  0.50120208  0.00436308     0.01800
C2848       C  0.50132894  0.47232234  0.00324779     0.01800
C2849       C  0.97235914  0.47027751  0.00212842     0.01800
C2850       C  0.97056736  0.49740790  0.00109323     0.01800
C2851       C  0.86021846  0.16533883  0.32696798     0.01800
C2852       C  0.86193532  0.19409705  0.32670345     0.01800
C2853       C  0.83509579  0.19586541  0.32971015     0.01800
C2854       C  0.80657796  0.16888869  0.33231757     0.01800
C2855       C  0.80456719  0.14011054  0.33045817     0.01800
C2856       C  0.83138417  0.13836930  0.32773047     0.01800
C2857       C  0.63764509  0.33440976  0.66183340     0.01800
C2858       C  0.66722545  0.36061823  0.66222948     0.01800
C2859       C  0.69324370  0.35756475  0.65910135     0.01800
C2860       C  0.68995718  0.32817784  0.65647670     0.01800
C2861       C  0.66034361  0.30169244  0.65608377     0.01800
C2862       C  0.63413730  0.30488931  0.65874464     0.01800
C2863       C  0.55298662  0.33382807  0.67232906    -0.06600
C2864       C  0.57053813  0.34782130  0.65382947    -0.17800
C2865       C  0.59865383  0.34971410  0.65027060     0.10600
C2866       C  0.61002221  0.33725948  0.66571489    -0.06600
C2867       C  0.59319331  0.32460763  0.68476023    -0.17800
C2868       C  0.56497231  0.32272058  0.68821120     0.10600
S2869       S  0.61733215  0.36724712  0.62512878    -0.32800
S2870       S  0.54438892  0.30383658  0.71226405    -0.32800
H2871       H  0.54588961  0.33043288  0.72067784     0.28600
H2872       H  0.63935464  0.35826798  0.62477696     0.28600
H2873       H  0.56205629  0.35719526  0.64171031     0.19200
H2874       H  0.60183889  0.31539253  0.69685980     0.19200
C2875       C  0.77741129  0.33294850  0.65946565    -0.06600
C2876       C  0.75932846  0.32148637  0.64067368    -0.17800
C2877       C  0.73037025  0.31843341  0.63919614     0.10600
C2878       C  0.71825160  0.32588502  0.65727123    -0.06600
C2879       C  0.73544146  0.33537453  0.67648647    -0.17800
C2880       C  0.76514022  0.34040693  0.67749613     0.10600
S2881       S  0.71087484  0.30515044  0.61365911    -0.32800
S2882       S  0.78647013  0.35851845  0.70173376    -0.32800
H2883       H  0.81296303  0.37925912  0.69054732     0.28600
H2884       H  0.69408151  0.32008222  0.61526553     0.28600
H2885       H  0.76785694  0.31498521  0.62678680     0.19200
H2886       H  0.72630718  0.34098816  0.69047599     0.19200
C2887       C  0.85440908  0.36250650  0.75981669    -0.06600
C2888       C  0.82998342  0.36811126  0.75752552    -0.17800
C2889       C  0.82123595  0.38058452  0.77440237     0.10600
C2890       C  0.83800265  0.38895717  0.79395852    -0.06600
C2891       C  0.86194268  0.38273283  0.79649370    -0.17800
C2892       C  0.86995958  0.36921508  0.77991356     0.10600
S2893       S  0.78787476  0.38407817  0.77007174    -0.32800
S2894       S  0.89924780  0.35992996  0.78587581    -0.32800
H2895       H  0.88560207  0.33261239  0.77378373     0.28600
H2896       H  0.77811139  0.37942302  0.79169182     0.28600
H2897       H  0.81765258  0.36296409  0.74236029     0.19200
H2898       H  0.87408601  0.38786603  0.81179795     0.19200
C2899       C  0.79160831  0.26764761  0.53766473    -0.06600
C2900       C  0.80627120  0.25071590  0.54128798    -0.17800
C2901       C  0.82198015  0.25360892  0.56061772     0.10600
C2902       C  0.82376949  0.27449998  0.57661013    -0.06600
C2903       C  0.80944654  0.29176120  0.57269057    -0.17800
C2904       C  0.79338399  0.28853783  0.55355699     0.10600
S2905       S  0.83790967  0.22904504  0.56416714    -0.32800
S2906       S  0.77551891  0.31158789  0.55069955    -0.32800
H2907       H  0.75095195  0.29138180  0.53754099     0.28600
H2908       H  0.83101350  0.22409574  0.58633882     0.28600
H2909       H  0.80446536  0.23425434  0.52925094     0.19200
H2910       H  0.81106885  0.30834552  0.58456104     0.19200
C2911       C  0.98589169  0.27621816  0.53841914    -0.06600
C2912       C  0.00389192  0.28307823  0.55713809    -0.17800
C2913       C  0.99822528  0.29585140  0.57542852     0.10600
C2914       C  0.97477933  0.30346465  0.57482543    -0.06600
C2915       C  0.95743861  0.29737463  0.55573270    -0.17800
C2916       C  0.96230839  0.28342340  0.53781443     0.10600
S2917       S  0.02040376  0.29965571  0.59930336    -0.32800
S2918       S  0.93674941  0.27428935  0.51504015    -0.32800
H2919       H  0.93693877  0.24759545  0.50890347     0.28600
H2920       H  0.99468383  0.28355523  0.61256560     0.28600
H2921       H  0.52209087  0.27772360  0.55769840     0.19200
H2922       H  0.93908496  0.30250783  0.55497725     0.19200
C2923       C  0.78126535  0.44076447  0.66412437    -0.06600
C2924       C  0.77114700  0.42545800  0.64413983    -0.17800
C2925       C  0.74286611  0.39869443  0.64191431     0.10600
C2926       C  0.72439326  0.38552799  0.66030917    -0.06600
C2927       C  0.73493133  0.40002327  0.68045542    -0.17800
C2928       C  0.76247801  0.42763764  0.68251134     0.10600
S2929       S  0.73126216  0.38412760  0.61482028    -0.32800
S2930       S  0.77061201  0.44583136  0.70870275    -0.32800
H2931       H  0.77492478  0.47365846  0.70053379     0.28600
H2932       H  0.69967777  0.36916273  0.61825799     0.28600
H2933       H  0.78480595  0.43514933  0.62978065     0.19200
H2934       H  0.72084220  0.39031893  0.69461967     0.19200
C2935       C  0.60320746  0.27723112  0.66154521    -0.06600
C2936       C  0.59736804  0.26146814  0.68119432    -0.17800
C2937       C  0.56810404  0.23799461  0.68661795     0.10600
C2938       C  0.54362006  0.22874587  0.67170829    -0.06600
C2939       C  0.54955518  0.24484632  0.65212365    -0.17800
C2940       C  0.57862618  0.26874320  0.64688090     0.10600
S2941       S  0.56408566  0.22112409  0.71284507    -0.32800
S2942       S  0.58186952  0.28635383  0.62093378    -0.32800
H2943       H  0.61323196  0.30641609  0.62127924     0.28600
H2944       H  0.54000684  0.22590128  0.71886393     0.28600
H2945       H  0.61568941  0.26843112  0.69288308     0.19200
H2946       H  0.53138273  0.23841130  0.64039024     0.19200
C2947       C  0.84096160  0.45124333  0.79581353    -0.06600
C2948       C  0.82049591  0.45930271  0.78677653    -0.17800
C2949       C  0.82957529  0.48158216  0.77064453     0.10600
C2950       C  0.85985306  0.99596779  0.76295771    -0.06600
C2951       C  0.88064395  0.98873865  0.77260909    -0.17800
C2952       C  0.87172212  0.46705243  0.78914747     0.10600
S2953       S  0.80269470  0.49248244  0.76088832    -0.32800
S2954       S  0.90095338  0.96154383  0.80144479    -0.32800
H2955       H  0.88777758  0.45368716  0.82209435     0.28600
H2956       H  0.77744790  0.47121434  0.77289391     0.28600
H2957       H  0.79726794  0.44813386  0.79260837     0.19200
H2958       H  0.90402558  0.99980202  0.76705043     0.19200
C2959       C  0.81327493  0.04433921  0.58047675    -0.06600
C2960       C  0.80620676  0.06328325  0.56811666    -0.17800
C2961       C  0.79041082  0.05327842  0.54834176     0.10600
C2962       C  0.78096952  0.02339593  0.54078640    -0.06600
C2963       C  0.78773469  0.00443509  0.55321570    -0.17800
C2964       C  0.80375457  0.01444369  0.57274829     0.10600
S2965       S  0.78440601  0.08030565  0.53324999    -0.32800
S2966       S  0.81313608  0.48847605  0.58603986    -0.32800
H2967       H  0.84392908  0.51053500  0.58954931     0.28600
H2968       H  0.78266603  0.06774993  0.51263529     0.28600
H2969       H  0.81373214  0.08633958  0.57363097     0.19200
H2970       H  0.78104037  0.48170990  0.54733486     0.19200
C2971       C  0.96182277  0.17495127  0.57595740    -0.06600
C2972       C  0.99211827  0.18798807  0.56884484    -0.17800
C2973       C  0.50271415  0.20808133  0.55128881     0.10600
C2974       C  0.98264696  0.21535369  0.54036248    -0.06600
C2975       C  0.95259513  0.20280803  0.54757588    -0.17800
C2976       C  0.94198782  0.18281469  0.56512823     0.10600
S2977       S  0.54224118  0.22413552  0.54390956    -0.32800
S2978       S  0.90352305  0.16985290  0.57374243    -0.32800
H2979       H  0.89343644  0.13945040  0.56758067     0.28600
H2980       H  0.54603217  0.25159576  0.53548746     0.28600
H2981       H  0.50778049  0.18275953  0.57718037     0.19200
H2982       H  0.93714731  0.20840495  0.53929230     0.19200
C2983       C  0.53837313  0.40769270  0.79789466    -0.06600
C2984       C  0.53101533  0.42880386  0.78904186    -0.17800
C2985       C  0.51528785  0.42303732  0.76935863     0.10600
C2986       C  0.50625192  0.39531609  0.75836160    -0.06600
C2987       C  0.51258205  0.37377467  0.76766278    -0.17800
C2988       C  0.52826901  0.37944574  0.78726984     0.10600
S2989       S  0.50855283  0.45232248  0.75880342    -0.32800
S2990       S  0.53451707  0.34954234  0.79748122    -0.32800
H2991       H  0.56174460  0.36812914  0.80878625     0.28600
H2992       H  0.51110178  0.44631404  0.73690569     0.28600
H2993       H  0.53839862  0.45036713  0.79725861     0.19200
H2994       H  0.00482627  0.35197458  0.75967447     0.19200
C2995       C  0.55297544  0.15333688  0.79397159    -0.06600
C2996       C  0.52666942  0.12460061  0.79596177    -0.17800
C2997       C  0.00600630  0.11112838  0.77871541     0.10600
C2998       C  0.51199783  0.12625164  0.75844951    -0.06600
C2999       C  0.53865870  0.15500636  0.75662403    -0.17800
C3000       C  0.55860631  0.16887911  0.77413028     0.10600
S3001       S  0.97205012  0.07532414  0.78420899    -0.32800
S3002       S  0.59025815  0.20689673  0.77030409    -0.32800
H3003       H  0.59158075  0.21646708  0.79186323     0.28600
H3004       H  0.95230630  0.08597785  0.77787643     0.28600
H3005       H  0.52215375  0.11255755  0.81118836     0.19200
H3006       H  0.54370503  0.16734980  0.74154542     0.19200
C3007       C  0.65354633  0.21273397  0.65819623    -0.06600
C3008       C  0.64269943  0.22093897  0.63998679    -0.17800
C3009       C  0.64422310  0.24933965  0.63863966     0.10600
C3010       C  0.65715405  0.27059515  0.65598062    -0.06600
C3011       C  0.66728277  0.26205323  0.67437946    -0.17800
C3012       C  0.66572431  0.23373015  0.67571559     0.10600
S3013       S  0.63002355  0.25650662  0.61390031    -0.32800
S3014       S  0.68194804  0.22706108  0.69960907    -0.32800
H3015       H  0.65353634  0.20345984  0.70677473     0.28600
H3016       H  0.64440703  0.28815079  0.61600454     0.28600
H3017       H  0.63340756  0.20524001  0.62642030     0.19200
H3018       H  0.67680733  0.27785401  0.68787478     0.19200
C3019       C  0.67160726  0.39181960  0.66563023    -0.06600
C3020       C  0.68394056  0.41268373  0.64857143    -0.17800
C3021       C  0.68996806  0.44262521  0.65062843     0.10600
C3022       C  0.68137916  0.45182671  0.66973979    -0.06600
C3023       C  0.67045618  0.43145678  0.68727076    -0.17800
C3024       C  0.66637371  0.40198649  0.68565567     0.10600
S3025       S  0.70952732  0.46793190  0.62842389    -0.32800
S3026       S  0.65514001  0.37916090  0.70988355    -0.32800
H3027       H  0.66508400  0.35883443  0.70376449     0.28600
H3028       H  0.72649846  0.49376854  0.64165394     0.28600
H3029       H  0.68938130  0.40568999  0.63347048     0.19200
H3030       H  0.66442089  0.43823855  0.70226252     0.19200
C3031       C  0.61734727  0.49496167  0.75825487    -0.06600
C3032       C  0.61219873  0.46498198  0.75816553    -0.17800
C3033       C  0.60523225  0.44802273  0.77725238     0.10600
C3034       C  0.60085271  0.46025005  0.79662285    -0.06600
C3035       C  0.60714903  0.49048405  0.79694039    -0.17800
C3036       C  0.61667104  0.00832209  0.77832606     0.10600
S3037       S  0.60402654  0.41186651  0.77602020    -0.32800
S3038       S  0.63034528  0.04847924  0.78200509    -0.32800
H3039       H  0.65568374  0.05797396  0.76836248     0.28600
H3040       H  0.61227781  0.41197404  0.79777943     0.28600
H3041       H  0.61434934  0.45491699  0.74324650     0.19200
H3042       H  0.60516249  0.50045306  0.81196688     0.19200
C3043       C  0.63565640  0.13864088  0.75648094    -0.06600
C3044       C  0.65322045  0.16812285  0.76503203    -0.17800
C3045       C  0.64274555  0.17801837  0.78245797     0.10600
C3046       C  0.61426319  0.15772578  0.79200645    -0.06600
C3047       C  0.59672336  0.12830430  0.78334732    -0.17800
C3048       C  0.60667271  0.11887207  0.76545203     0.10600
S3049       S  0.66658334  0.21707161  0.79115444    -0.32800
S3050       S  0.57976095  0.08294178  0.75317611    -0.32800
H3051       H  0.59726713  0.06923803  0.75768933     0.28600
H3052       H  0.64312722  0.22115764  0.79951134     0.32200
H3053       H  0.67501370  0.18375780  0.75781319     0.19200
H3054       H  0.57497011  0.11251608  0.79049979     0.19200
C3055       C  0.71599194  0.00599684  0.53399518    -0.06600
C3056       C  0.70879994  0.02929455  0.53224310    -0.17800
C3057       C  0.69581414  0.03667617  0.54954528     0.10600
C3058       C  0.69022188  0.02070858  0.56935589    -0.06600
C3059       C  0.69494648  0.99557036  0.57027146    -0.17800
C3060       C  0.70731113  0.98782029  0.55278497     0.10600
S3061       S  0.68721837  0.06680560  0.54521285    -0.32800
S3062       S  0.71181222  0.45479290  0.55565709    -0.32800
H3063       H  0.71148853  0.44858968  0.53344450     0.28600
H3064       H  0.66083001  0.05352307  0.55806976     0.28600
H3065       H  0.71434006  0.04255049  0.51752211     0.19200
H3066       H  0.69013628  0.98249687  0.58501995     0.19200
C3067       C  0.73449312  0.21053895  0.53602093    -0.06600
C3068       C  0.72826820  0.22028282  0.55560866    -0.17800
C3069       C  0.72392859  0.20400731  0.57467132     0.10600
C3070       C  0.72318138  0.17562728  0.57403279    -0.06600
C3071       C  0.72916469  0.16572862  0.55426864    -0.17800
C3072       C  0.73537099  0.18311177  0.53541356     0.10600
S3073       S  0.72104854  0.22177518  0.59923723    -0.32800
S3074       S  0.74417409  0.16899015  0.51124575    -0.32800
H3075       H  0.76338826  0.19751099  0.50181535     0.28600
H3076       H  0.73827174  0.21257393  0.61176620     0.28600
H3077       H  0.72821749  0.24165334  0.55624716     0.19200
H3078       H  0.72864003  0.14407373  0.55336098     0.19200
C3079       C  0.99038382  0.10763058  0.99354075    -0.06600
C3080       C  0.98618485  0.09388133  0.01400248    -0.17800
C3081       C  0.98909789  0.06813637  0.01735210     0.10600
C3082       C  0.99583781  0.05479789  0.99970349    -0.06600
C3083       C  0.49993366  0.06811272  0.97921277    -0.17800
C3084       C  0.49761280  0.09429279  0.97593289     0.10600
S3085       S  0.98439601  0.05428318  0.04474792    -0.32800
S3086       S  0.50484971  0.10945440  0.94896099    -0.32800
H3087       H  0.53027119  0.13730939  0.95542409     0.28600
H3088       H  0.99772644  0.03598926  0.04230590     0.28600
H3089       H  0.98145017  0.10379968  0.02790157     0.19200
H3090       H  0.50499766  0.05793382  0.96556379     0.19200
C3091       C  0.51078496  0.39206520  0.00445498    -0.06600
C3092       C  0.50091170  0.39986499  0.98543349    -0.17800
C3093       C  0.99828504  0.42605024  0.98432052     0.10600
C3094       C  0.50408452  0.44428103  0.00303886    -0.06600
C3095       C  0.51512319  0.43719033  0.02173075    -0.17800
C3096       C  0.51929184  0.41193361  0.02246364     0.10600
S3097       S  0.98836558  0.43500214  0.95833293    -0.32800
S3098       S  0.53689139  0.40730414  0.04642094    -0.32800
H3099       H  0.55366379  0.39634131  0.03521389     0.28600
H3100       H  0.99943963  0.46620191  0.96202746     0.28600
H3101       H  0.99485263  0.38528289  0.97125188     0.19200
H3102       H  0.52092371  0.45175309  0.03586448     0.19200
C3103       C  0.53049938  0.34182460  0.90665368    -0.06600
C3104       C  0.53425200  0.37119119  0.90971126    -0.17800
C3105       C  0.54573906  0.39327041  0.89334862     0.10600
C3106       C  0.55472879  0.38643000  0.87348944    -0.06600
C3107       C  0.55040314  0.35703995  0.87020251    -0.17800
C3108       C  0.53813499  0.33469780  0.88628332     0.10600
S3109       S  0.54765717  0.42925695  0.89883588    -0.32800
S3110       S  0.53188423  0.29737554  0.87932410    -0.32800
H3111       H  0.50375043  0.28159586  0.89007649     0.28600
H3112       H  0.54539417  0.43659508  0.87726278     0.28600
H3113       H  0.52851793  0.37726437  0.92511832     0.19200
H3114       H  0.55631203  0.35130776  0.85472351     0.19200
C3115       C  0.57678086  0.19529508  0.86954090    -0.06600
C3116       C  0.54928853  0.17505817  0.87971011    -0.17800
C3117       C  0.53893946  0.18399043  0.89779095     0.10600
C3118       C  0.55711551  0.21350857  0.90692341    -0.06600
C3119       C  0.58439753  0.23396681  0.89653449    -0.17800
C3120       C  0.59415355  0.22536243  0.87783060     0.10600
S3121       S  0.00105235  0.15749792  0.90711845    -0.32800
S3122       S  0.62749154  0.25365961  0.86381375    -0.32800
H3123       H  0.63680520  0.27701765  0.87939069     0.28600
H3124       H  0.99269775  0.17984265  0.91060052     0.28600
H3125       H  0.53531656  0.15228753  0.87311706     0.19200
H3126       H  0.59782409  0.25690359  0.90291813     0.19200
C3127       C  0.60712231  0.11668390  0.00593685    -0.06600
C3128       C  0.59800924  0.10014175  0.98632472    -0.17800
C3129       C  0.57185569  0.07137228  0.98492299     0.10600
C3130       C  0.55430976  0.05841899  0.00366219    -0.06600
C3131       C  0.56275398  0.07512063  0.02305827    -0.17800
C3132       C  0.58853998  0.10412055  0.02438012     0.10600
S3133       S  0.56294168  0.05261497  0.95878401    -0.32800
S3134       S  0.59577231  0.12382703  0.04995720    -0.32800
H3135       H  0.60455915  0.15236312  0.04060014     0.28600
H3136       H  0.53308714  0.02922747  0.96288735     0.28600
H3137       H  0.61184303  0.10923407  0.97196826     0.19200
H3138       H  0.54911105  0.06554304  0.03737584     0.19200
C3139       C  0.89185988  0.38149495  0.99373892    -0.06600
C3140       C  0.90877470  0.38874602  0.01312382    -0.17800
C3141       C  0.93430534  0.41745701  0.01679185     0.10600
C3142       C  0.94419834  0.43979324  0.00032209    -0.06600
C3143       C  0.92767934  0.43255158  0.98084093    -0.17800
C3144       C  0.90189665  0.40394487  0.97729642     0.10600
S3145       S  0.95131606  0.42361479  0.04345085    -0.32800
S3146       S  0.88244869  0.39857586  0.95180704    -0.32800
H3147       H  0.88521591  0.37314106  0.94603232     0.28600
H3148       H  0.97328392  0.45450795  0.04166382     0.28600
H3149       H  0.90146002  0.37216089  0.02604469     0.19200
H3150       H  0.93525937  0.44935589  0.96805234     0.19200
C3151       C  0.78193401  0.33888975  0.90898572    -0.06600
C3152       C  0.81301613  0.35529232  0.90347498    -0.17800
C3153       C  0.82283728  0.37110633  0.88398885     0.10600
C3154       C  0.80105985  0.37043416  0.86938144    -0.06600
C3155       C  0.77000230  0.35338565  0.87443210    -0.17800
C3156       C  0.76023322  0.33841063  0.89423329     0.10600
S3157       S  0.86339433  0.39078322  0.87886991    -0.32800
S3158       S  0.72003936  0.32056013  0.89991138    -0.32800
H3159       H  0.72434910  0.33026162  0.92165653     0.28600
H3160       H  0.86458562  0.40902051  0.86146220     0.28600
H3161       H  0.82997162  0.35536749  0.91425046     0.19200
H3162       H  0.75328218  0.35290898  0.86321112     0.19200
C3163       C  0.63172407  0.18711367  0.86901534    -0.06600
C3164       C  0.61770577  0.16768528  0.88662222    -0.17800
C3165       C  0.63423753  0.16913359  0.90517430     0.10600
C3166       C  0.66573443  0.19095622  0.90645083    -0.06600
C3167       C  0.67994583  0.20930712  0.88833092    -0.17800
C3168       C  0.66349651  0.20779348  0.86978106     0.10600
S3169       S  0.61324866  0.14347388  0.92682104    -0.32800
S3170       S  0.68479310  0.23379233  0.84824871    -0.32800
H3171       H  0.66028115  0.23404309  0.83790522     0.28600
H3172       H  0.63284633  0.13129987  0.92799688     0.28600
H3173       H  0.59360993  0.15093623  0.88581100     0.19200
H3174       H  0.70407332  0.22601663  0.88889708     0.19200
C3175       C  0.88951642  0.00429430  0.99373568    -0.06600
C3176       C  0.89511338  0.99365739  0.01322968    -0.17800
C3177       C  0.92032760  0.48979333  0.01591284     0.10600
C3178       C  0.94076474  0.99640777  0.99856263    -0.06600
C3179       C  0.93447228  0.00570179  0.97870245    -0.17800
C3180       C  0.90959056  0.01035704  0.97623152     0.10600
S3181       S  0.92429405  0.47619966  0.04196238    -0.32800
S3182       S  0.90591014  0.02573448  0.95088387    -0.32800
H3183       H  0.89636242  0.04491317  0.96028185     0.28600
H3184       H  0.95570390  0.48774605  0.04114270     0.28600
H3185       H  0.87948718  0.48805043  0.02664584     0.19200
H3186       H  0.94993802  0.01068268  0.96527089     0.19200
C3187       C  0.61079327  0.49604193  0.00619911    -0.06600
C3188       C  0.60136841  0.00524643  0.02476442    -0.17800
C3189       C  0.57511671  0.00790502  0.02467149     0.10600
C3190       C  0.55831260  0.50258611  0.00525386    -0.06600
C3191       C  0.56770403  0.49357283  0.98671404    -0.17800
C3192       C  0.59275201  0.48908288  0.98711909     0.10600
S3193       S  0.56414059  0.01712602  0.05013134    -0.32800
S3194       S  0.59894469  0.47276466  0.96299533    -0.32800
H3195       H  0.60510326  0.45237500  0.97438444     0.28600
H3196       H  0.53330618  0.00628942  0.04529310     0.28600
H3197       H  0.61455393  0.01049390  0.03959276     0.19200
H3198       H  0.55427116  0.48831533  0.97200874     0.19200
C3199       C  0.66051597  0.47075931  0.90711867    -0.06600
C3200       C  0.65475365  0.44358568  0.89664664    -0.17800
C3201       C  0.63359463  0.43084251  0.87970686     0.10600
C3202       C  0.61685242  0.44494454  0.87332109    -0.06600
C3203       C  0.62303989  0.47244965  0.88330926    -0.17800
C3204       C  0.64476532  0.48563636  0.89989575     0.10600
S3205       S  0.62962743  0.39691860  0.86686828    -0.32800
S3206       S  0.65209521  0.52198191  0.91040879    -0.32800
H3207       H  0.68368295  0.03388457  0.91290785     0.28600
H3208       H  0.61927785  0.40061923  0.84661817     0.28600
H3209       H  0.66656052  0.43179212  0.90186475     0.19200
H3210       H  0.61117799  0.48407060  0.87780012     0.19200
C3211       C  0.80085475  0.42757068  0.87042452    -0.06600
C3212       C  0.76955831  0.41525905  0.87394866    -0.17800
C3213       C  0.75858685  0.41873899  0.89384833     0.10600
C3214       C  0.77947064  0.43682649  0.91027291    -0.06600
C3215       C  0.81086926  0.44911589  0.90657741    -0.17800
C3216       C  0.82175242  0.44471854  0.88696528     0.10600
S3217       S  0.71784369  0.39799550  0.89751341    -0.32800
S3218       S  0.86252985  0.46151491  0.88443791    -0.32800
H3219       H  0.86412959  0.46315054  0.86181320     0.28600
H3220       H  0.71947602  0.39004088  0.91908534     0.28600
H3221       H  0.75345952  0.40142717  0.86143436     0.19200
H3222       H  0.82735503  0.46318775  0.91881144     0.19200
C3223       C  0.92671562  0.30978303  0.12854561    -0.06600
C3224       C  0.93251481  0.32585990  0.10904931    -0.17800
C3225       C  0.93756985  0.31453653  0.08960990     0.10600
C3226       C  0.93786314  0.28655525  0.08961457    -0.06600
C3227       C  0.93144249  0.27025778  0.10918899    -0.17800
C3228       C  0.92582963  0.28146910  0.12849342     0.10600
S3229       S  0.44267118  0.33596445  0.06503721    -0.32800
S3230       S  0.91731269  0.25933844  0.15299369    -0.32800
H3231       H  0.91498856  0.23297133  0.14344882     0.28600
H3232       H  0.43771417  0.35873100  0.07395088     0.28600
H3233       H  0.93286198  0.34741774  0.10911229     0.19200
H3234       H  0.93169749  0.24900638  0.10955967     0.19200
C3235       C  0.87207166  0.31679545  0.12984755    -0.06600
C3236       C  0.87429024  0.34097504  0.11745515    -0.17800
C3237       C  0.85560844  0.33557602  0.09937751     0.10600
C3238       C  0.83441333  0.30515017  0.09332268    -0.06600
C3239       C  0.83176702  0.28110249  0.10630650    -0.17800
C3240       C  0.85001993  0.28657164  0.12456094     0.10600
S3241       S  0.85969058  0.36848041  0.08518964    -0.32800
S3242       S  0.84411082  0.25386131  0.14005738    -0.32800
H3243       H  0.85606880  0.26896868  0.15980755     0.28600
H3244       H  0.82817287  0.35613050  0.08186435     0.28600
H3245       H  0.89075995  0.36427390  0.12195676     0.19200
H3246       H  0.81575098  0.25760002  0.10200197     0.19200
C3247       C  0.82322701  0.04954412  0.32930118    -0.06600
C3248       C  0.82465341  0.06347984  0.30929326    -0.17800
C3249       C  0.82728082  0.09228208  0.30808776     0.10600
C3250       C  0.82921220  0.10812487  0.32741375    -0.06600
C3251       C  0.82709990  0.09419316  0.34732449    -0.17800
C3252       C  0.82341393  0.06503240  0.34854699     0.10600
S3253       S  0.82778656  0.10674879  0.28129545    -0.32800
S3254       S  0.81848155  0.04915282  0.37522854    -0.32800
H3255       H  0.84768495  0.05224555  0.37529081     0.28600
H3256       H  0.83347503  0.13593546  0.28695634     0.28600
H3257       H  0.82414571  0.05208052  0.29429563     0.19200
H3258       H  0.82795894  0.10608924  0.36214964     0.19200
C3259       C  0.83724013  0.22610332  0.33149410    -0.06600
C3260       C  0.84177951  0.23935454  0.35210429    -0.17800
C3261       C  0.84697761  0.26900085  0.35490848     0.10600
C3262       C  0.84489718  0.28510627  0.33693290    -0.06600
C3263       C  0.84049876  0.27168296  0.31622592    -0.17800
C3264       C  0.83705594  0.24271842  0.31325741     0.10600
S3265       S  0.85834327  0.28543942  0.38150618    -0.32800
S3266       S  0.83231688  0.22877943  0.28574594    -0.32800
H3267       H  0.82406589  0.19847509  0.29005988     0.28600
H3268       H  0.88016848  0.31447684  0.37394567     0.28600
H3269       H  0.84277870  0.22700753  0.36607396     0.19200
H3270       H  0.83903582  0.28351812  0.30209034     0.19200
C3271       C  0.81149018  0.47480566  0.43098228    -0.06600
C3272       C  0.78985399  0.45089828  0.44390600    -0.17800
C3273       C  0.77650981  0.45653083  0.46177517     0.10600
C3274       C  0.78396145  0.48672876  0.46666341    -0.06600
C3275       C  0.80738507  0.51082940  0.45508732    -0.17800
C3276       C  0.82152727  0.50524709  0.43755996     0.10600
S3277       S  0.74989958  0.42407293  0.47748272    -0.32800
S3278       S  0.85248384  0.03787770  0.42469832    -0.32800
H3279       H  0.86934470  0.02327148  0.42030958     0.28600
H3280       H  0.75375232  0.43996571  0.49699963     0.28600
H3281       H  0.78232988  0.42737244  0.43970081     0.19200
H3282       H  0.81423479  0.03415821  0.45945137     0.19200
C3283       C  0.78353870  0.32834039  0.42643882    -0.06600
C3284       C  0.76010694  0.32633996  0.43966656    -0.17800
C3285       C  0.75331819  0.31095876  0.45943046     0.10600
C3286       C  0.76959245  0.29631674  0.46583335    -0.06600
C3287       C  0.79376905  0.29939559  0.45313902    -0.17800
C3288       C  0.80122899  0.31557327  0.43379350     0.10600
S3289       S  0.72404229  0.31119173  0.47578710    -0.32800
S3290       S  0.83456431  0.32028881  0.42000759    -0.32800
H3291       H  0.84631714  0.35148824  0.41570978     0.28600
H3292       H  0.73473281  0.30665657  0.49566169     0.28600
H3293       H  0.74715085  0.33704763  0.43467071     0.19200
H3294       H  0.80656895  0.28852521  0.45816330     0.19200
C3295       C  0.86684207  0.36393604  0.24183113    -0.06600
C3296       C  0.85195506  0.33393090  0.23384670    -0.17800
C3297       C  0.86353409  0.32574519  0.21616605     0.10600
C3298       C  0.89024064  0.34816527  0.20582507    -0.06600
C3299       C  0.90526929  0.37807992  0.21384580    -0.17800
C3300       C  0.89438866  0.38601551  0.23202647     0.10600
S3301       S  0.84347815  0.28623253  0.20778772    -0.32800
S3302       S  0.91788087  0.42411493  0.24263933    -0.32800
H3303       H  0.91432051  0.41499615  0.26443263     0.28600
H3304       H  0.86939581  0.28540290  0.20067155     0.28600
H3305       H  0.83133607  0.31667255  0.24156166     0.19200
H3306       H  0.92596922  0.39520211  0.20612828     0.19200
C3307       C  0.71731934  0.05733525  0.33816407    -0.06600
C3308       C  0.72576424  0.07211496  0.31795163    -0.17800
C3309       C  0.75368748  0.09889183  0.31484766     0.10600
C3310       C  0.77428512  0.11167246  0.33238976    -0.06600
C3311       C  0.76570035  0.09768681  0.35269619    -0.17800
C3312       C  0.73756610  0.07119064  0.35591643     0.10600
S3313       S  0.76122127  0.11448931  0.28782515    -0.32800
S3314       S  0.72954743  0.05657330  0.38308744    -0.32800
H3315       H  0.70078937  0.05450293  0.38350207     0.28600
H3316       H  0.78947558  0.14068013  0.29153809     0.28600
H3317       H  0.71077917  0.06237033  0.30407410     0.19200
H3318       H  0.78114019  0.10765742  0.36630494     0.19200
C3319       C  0.89238304  0.22242397  0.32508548    -0.06600
C3320       C  0.90476594  0.23979834  0.34392445    -0.17800
C3321       C  0.93317424  0.26638125  0.34392725     0.10600
C3322       C  0.95163248  0.27450672  0.32520305    -0.06600
C3323       C  0.93933086  0.25707009  0.30627370    -0.17800
C3324       C  0.90976867  0.23169393  0.30580201     0.10600
S3325       S  0.94269244  0.29032979  0.36763757    -0.32800
S3326       S  0.89600901  0.21330533  0.27982632    -0.32800
H3327       H  0.86638522  0.19159154  0.28586190     0.28600
H3328       H  0.95345033  0.31758533  0.35590536     0.28600
H3329       H  0.89178034  0.23301022  0.35876073     0.19200
H3330       H  0.95265101  0.26359252  0.29154881     0.19200
C3331       C  0.53206934  0.32213637  0.42367909    -0.06600
C3332       C  0.54917968  0.33424988  0.44277806    -0.17800
C3333       C  0.54288999  0.31664534  0.46148786     0.10600
C3334       C  0.51783610  0.28652709  0.46172014    -0.06600
C3335       C  0.50043862  0.27453163  0.44282861    -0.17800
C3336       C  0.50797494  0.29135757  0.42369485     0.10600
S3337       S  0.56841808  0.33364682  0.48422720    -0.32800
S3338       S  0.48757067  0.27098569  0.39970890    -0.32800
H3339       H  0.51390914  0.28190181  0.38693158     0.28600
H3340       H  0.56588004  0.30628141  0.49179667     0.28600
H3341       H  0.56823860  0.35741637  0.44301005     0.19200
H3342       H  0.48120238  0.25151029  0.44279206     0.19200
C3343       C  0.72008549  0.47259807  0.45890001    -0.06600
C3344       C  0.69673400  0.44198902  0.45848203    -0.17800
C3345       C  0.67977373  0.42840206  0.43963504     0.10600
C3346       C  0.68530839  0.44615021  0.42062600    -0.06600
C3347       C  0.70985029  0.47647496  0.42094676    -0.17800
C3348       C  0.72683424  0.48992428  0.43977368     0.10600
S3349       S  0.65123350  0.38860488  0.44143502    -0.32800
S3350       S  0.75526096  0.02989482  0.43848520    -0.32800
H3351       H  0.75362668  0.03691655  0.46027282     0.28600
H3352       H  0.66023320  0.38074778  0.42205782     0.28600
H3353       H  0.69162758  0.42851691  0.47307322     0.19200
H3354       H  0.71490647  0.49062983  0.40673306     0.19200
C3355       C  0.95156368  0.35342570  0.20457686    -0.06600
C3356       C  0.94135168  0.33968997  0.22486367    -0.17800
C3357       C  0.95873643  0.35227846  0.24368855     0.10600
C3358       C  0.98837487  0.37825193  0.24231273    -0.06600
C3359       C  0.99877416  0.39167780  0.22191240    -0.17800
C3360       C  0.98060807  0.37999849  0.20325771     0.10600
S3361       S  0.94091021  0.33480262  0.26896518    -0.32800
S3362       S  0.99566716  0.40044570  0.17834947    -0.32800
H3363       H  0.96770663  0.39628893  0.17058786     0.28600
H3364       H  0.95335669  0.36255915  0.28048130     0.28600
H3365       H  0.91897881  0.31956329  0.22618918     0.19200
H3366       H  0.52141815  0.41135755  0.22037893     0.19200
C3367       C  0.94268690  0.11805239  0.12773780    -0.06600
C3368       C  0.94380905  0.10664624  0.10727892    -0.17800
C3369       C  0.95266748  0.12522404  0.08894040     0.10600
C3370       C  0.96307991  0.15687806  0.09101170    -0.06600
C3371       C  0.96222688  0.16840858  0.11154688    -0.17800
C3372       C  0.95176320  0.14941684  0.12976433     0.10600
S3373       S  0.94743441  0.10627569  0.06326298    -0.32800
S3374       S  0.94990311  0.16671359  0.15489874    -0.32800
H3375       H  0.92570241  0.14033726  0.16398375     0.28600
H3376       H  0.93518735  0.12243554  0.05278831     0.28600
H3377       H  0.93698470  0.08275243  0.10543350     0.19200
H3378       H  0.96930967  0.19237029  0.11338199     0.19200
C3379       C  0.88245958  0.05835962  0.12849986    -0.06600
C3380       C  0.87803438  0.03203325  0.11758705    -0.17800
C3381       C  0.85822997  0.02006854  0.09976766     0.10600
C3382       C  0.84250717  0.03490383  0.09232091    -0.06600
C3383       C  0.84660199  0.06093769  0.10364122    -0.17800
C3384       C  0.86596236  0.07250848  0.12166455     0.10600
S3385       S  0.85366686  0.48553119  0.08771683    -0.32800
S3386       S  0.86837170  0.10520668  0.13526517    -0.32800
H3387       H  0.87287767  0.09702285  0.15608684     0.28600
H3388       H  0.82207870  0.47239693  0.08428651     0.28600
H3389       H  0.89017160  0.02068745  0.12304626     0.19200
H3390       H  0.83492231  0.07276567  0.09826222     0.19200
C3391       C  0.89026610  0.00879127  0.24339364    -0.06600
C3392       C  0.88935494  0.99425239  0.22373026    -0.17800
C3393       C  0.89651273  0.00984733  0.20407677     0.10600
C3394       C  0.90436564  0.04086547  0.20382634    -0.06600
C3395       C  0.90427089  0.05513293  0.22338289    -0.17800
C3396       C  0.89835509  0.03985365  0.24314377     0.10600
S3397       S  0.89522486  0.98855273  0.18016913    -0.32800
S3398       S  0.90323391  0.06177605  0.26740291    -0.32800
H3399       H  0.91551796  0.04712275  0.27974845     0.28600
H3400       H  0.91746371  0.01312533  0.16823176     0.28600
H3401       H  0.88270508  0.47028593  0.22358433     0.19200
H3402       H  0.91002544  0.07883796  0.22333997     0.19200
C3403       C  0.69914682  0.12856308  0.13231214    -0.06600
C3404       C  0.72992807  0.14417817  0.12633152    -0.17800
C3405       C  0.73907741  0.15825421  0.10620712     0.10600
C3406       C  0.71721577  0.15860994  0.09208322    -0.06600
C3407       C  0.68647451  0.14381725  0.09849425    -0.17800
C3408       C  0.67714269  0.12866843  0.11829560     0.10600
S3409       S  0.77859586  0.17360668  0.09919372    -0.32800
S3410       S  0.63696645  0.11064205  0.12448588    -0.32800
H3411       H  0.63575960  0.09145192  0.14122198     0.28600
H3412       H  0.77246976  0.16394308  0.07745875     0.28600
H3413       H  0.74682148  0.14398623  0.13703064     0.19200
H3414       H  0.66948320  0.14443241  0.08814264     0.19200
C3415       C  0.70128562  0.07245117  0.13122645    -0.06600
C3416       C  0.73231878  0.08273414  0.12828484    -0.17800
C3417       C  0.74348994  0.07917437  0.10839015     0.10600
C3418       C  0.72275676  0.06398059  0.09104583    -0.06600
C3419       C  0.69157214  0.05363674  0.09430665    -0.17800
C3420       C  0.68066055  0.05738385  0.11411684     0.10600
S3421       S  0.78424784  0.09508052  0.10566014    -0.32800
S3422       S  0.64008931  0.04211927  0.11640943    -0.32800
H3423       H  0.63826882  0.03838828  0.13895221     0.28600
H3424       H  0.79285911  0.10912609  0.12613911     0.28600
H3425       H  0.74793020  0.09461941  0.14150547     0.19200
H3426       H  0.67515639  0.04158168  0.08152286     0.19200
C3427       C  0.66505133  0.04973861  0.20680217    -0.06600
C3428       C  0.63958648  0.02054652  0.20371648    -0.17800
C3429       C  0.62975467  0.49833264  0.21989421     0.10600
C3430       C  0.64490661  0.50567953  0.24017538    -0.06600
C3431       C  0.67086417  0.03478644  0.24297662    -0.17800
C3432       C  0.68143278  0.05646200  0.22644995     0.10600
S3433       S  0.59863419  0.46089105  0.21318970    -0.32800
S3434       S  0.71642712  0.09173968  0.23126565    -0.32800
H3435       H  0.72679532  0.09525215  0.20981871     0.28600
H3436       H  0.61109348  0.44525073  0.22412607     0.28600
H3437       H  0.62753977  0.01486097  0.18835695     0.19200
H3438       H  0.68310371  0.04093520  0.25826036     0.19200
C3439       C  0.77822112  0.17015837  0.33621882    -0.06600
C3440       C  0.76319470  0.17327374  0.31825459    -0.17800
C3441       C  0.73420472  0.16985285  0.31995562     0.10600
C3442       C  0.71876428  0.16172813  0.34006515    -0.06600
C3443       C  0.73445861  0.16006215  0.35835477    -0.17800
C3444       C  0.76408121  0.16455320  0.35672868     0.10600
S3445       S  0.71917217  0.17771514  0.29589124    -0.32800
S3446       S  0.78217890  0.16270488  0.38147046    -0.32800
H3447       H  0.81134213  0.17215384  0.37328218     0.28600
H3448       H  0.70886951  0.19531048  0.30679261     0.28600
H3449       H  0.77395263  0.17804308  0.30256822     0.19200
H3450       H  0.72352437  0.15502338  0.37403256     0.19200
C3451       C  0.88902457  0.16405392  0.32772049    -0.06600
C3452       C  0.90067353  0.15979111  0.30838283    -0.17800
C3453       C  0.92997505  0.16366310  0.30724480     0.10600
C3454       C  0.94820635  0.17060379  0.32626067    -0.06600
C3455       C  0.93606498  0.17438173  0.34578130    -0.17800
C3456       C  0.90692256  0.17115132  0.34673217     0.10600
S3457       S  0.94242390  0.16030069  0.28068333    -0.32800
S3458       S  0.89417558  0.17649783  0.37280646    -0.32800
H3459       H  0.86286934  0.16204443  0.36816170     0.28600
H3460       H  0.96968449  0.18854119  0.28222540     0.28600
H3461       H  0.88742493  0.15488619  0.29369157     0.19200
H3462       H  0.94912111  0.17944402  0.36064254     0.19200
C3463       C  0.52997537  0.20030240  0.42850992    -0.06600
C3464       C  0.49914687  0.18879125  0.43383369    -0.17800
C3465       C  0.49058252  0.20055274  0.45134847     0.10600
C3466       C  0.51324614  0.22512826  0.46360095    -0.06600
C3467       C  0.54390339  0.23639785  0.45864077    -0.17800
C3468       C  0.55257166  0.22400175  0.44172602     0.10600
S3469       S  0.95038331  0.18319950  0.45705292    -0.32800
S3470       S  0.59296289  0.24009165  0.43805139    -0.32800
H3471       H  0.59126357  0.21188706  0.44192896     0.28600
H3472       H  0.95132353  0.20796291  0.46808618     0.28600
H3473       H  0.48147319  0.17057622  0.42419018     0.19200
H3474       H  0.56133903  0.25476713  0.46835879     0.19200
C3475       C  0.67836101  0.22717367  0.42442216    -0.06600
C3476       C  0.66556406  0.22665500  0.44469062    -0.17800
C3477       C  0.68228437  0.23223452  0.46389407     0.10600
C3478       C  0.71247752  0.23768201  0.46301202    -0.06600
C3479       C  0.72501352  0.23750596  0.44280399    -0.17800
C3480       C  0.70892043  0.23369455  0.42358232     0.10600
S3481       S  0.66340663  0.23170274  0.48877882    -0.32800
S3482       S  0.72921443  0.23876623  0.39860285    -0.32800
H3483       H  0.71424897  0.25174563  0.38741741     0.28600
H3484       H  0.68956546  0.25205524  0.50054846     0.28600
H3485       H  0.64204889  0.22111670  0.44569734     0.19200
H3486       H  0.74804252  0.24140423  0.44194177     0.19200
C3487       C  0.96556941  0.09469642  0.20155189    -0.06600
C3488       C  0.97178542  0.12093294  0.21327821    -0.17800
C3489       C  0.98691926  0.12752835  0.23322805     0.10600
C3490       C  0.99426839  0.10643403  0.24253102    -0.06600
C3491       C  0.98959074  0.08108786  0.23021398    -0.17800
C3492       C  0.97629655  0.07560902  0.20959232     0.10600
S3493       S  0.49835768  0.16435448  0.24503392    -0.32800
S3494       S  0.97452418  0.04454744  0.19409745    -0.32800
H3495       H  0.97357690  0.05633115  0.17371446     0.28600
H3496       H  0.52724334  0.16995023  0.25187093     0.28600
H3497       H  0.96454908  0.13624911  0.20691452     0.19200
H3498       H  0.99687933  0.06578159  0.23650740     0.19200
C3499       C  0.66316104  0.10876899  0.20856635    -0.06600
C3500       C  0.63323960  0.08971268  0.21571257    -0.17800
C3501       C  0.62143586  0.09782719  0.23334415     0.10600
C3502       C  0.63960447  0.12621175  0.24397595    -0.06600
C3503       C  0.66940888  0.14546807  0.23662498    -0.17800
C3504       C  0.68137203  0.13720304  0.21914080     0.10600
S3505       S  0.58359875  0.07012979  0.24203832    -0.32800
S3506       S  0.72011647  0.16410474  0.21149557    -0.32800
H3507       H  0.72690852  0.14323350  0.20160686     0.28600
H3508       H  0.59116258  0.07341570  0.26418942     0.28600
H3509       H  0.61893883  0.06812501  0.20753992     0.19200
H3510       H  0.68365332  0.16715277  0.24469557     0.19200
O3511       O  0.52438758  0.63650480  0.33054317    -0.88900
C3512       C  0.59459740  0.68593057  0.28787744     0.87200
Mg3513     Mg  0.52077735  0.65576592  0.36099711     1.58100
O3514       O  0.59983886  0.62884982  0.31693294    -0.88600
O3515       O  0.52749501  0.59805845  0.31727079    -0.75900
C3516       C  0.65785130  0.71587993  0.40532008     0.92200
O3517       O  0.55878419  0.70896128  0.32172527    -0.75700
O3518       O  0.63458173  0.71914553  0.40457504    -0.83200
Mg3519     Mg  0.53159583  0.66437046  0.30234895     1.58000
C3520       C  0.68740519  0.65683273  0.34240941     0.92100
O3521       O  0.50282480  0.62433230  0.27899600    -0.81500
H3522       H  0.58478111  0.58524171  0.32472717    -0.06800
C3523       C  0.64903104  0.71561945  0.34098307     0.87100
O3524       O  0.54362970  0.63251442  0.37913598    -0.76000
O3525       O  0.57263366  0.66281540  0.29538522    -0.88800
O3526       O  0.66932003  0.64720101  0.32627579    -0.81600
C3527       C  0.62902369  0.63525285  0.26354547     0.92300
C3528       C  0.51032472  0.61262547  0.26358457     0.92100
Mg3529     Mg  0.63418817  0.66062561  0.36836248     1.58000
O3530       O  0.66261159  0.70064510  0.39103880    -0.81500
O3531       O  0.60698025  0.61564140  0.34905894    -0.75700
O3532       O  0.60132516  0.62873695  0.26483469    -0.81600
O3533       O  0.98816332  0.66500037  0.30996293    -0.83300
O3534       O  0.56451780  0.69382014  0.40601997    -0.81600
C3535       C  0.59674533  0.60892972  0.32983266     0.86600
O3536       O  0.59292369  0.66163098  0.37549409    -0.88800
O3537       O  0.63953234  0.68789625  0.34045208    -0.88900
O3538       O  0.63670933  0.72682279  0.35294534    -0.75900
Mg3539     Mg  0.56622023  0.61747931  0.29207663     1.58000
O3540       O  0.64771749  0.64829622  0.27901270    -0.83300
H3541       H  0.49623762  0.59348212  0.33968521    -0.07000
O3542       O  0.56422972  0.69530876  0.35414446    -0.88600
H3543       H  0.57979764  0.73898733  0.34639872    -0.06800
H3544       H  0.57458736  0.62305612  0.39262373    -0.07000
C3545       C  0.56790853  0.71537366  0.34118774     0.86500
C3546       C  0.51507118  0.60883264  0.32957641     0.87100
C3547       C  0.57079003  0.63859776  0.38292763     0.87200
H3548       H  0.66773071  0.73056062  0.33063962    -0.07000
O3549       O  0.62183900  0.69257740  0.29195673    -0.76000
Mg3550     Mg  0.59878826  0.70689092  0.37850275     1.58000
H3551       H  0.59054738  0.70114395  0.27799843    -0.07000
C3552       C  0.97774790  0.67041460  0.32705484     0.92100
O3553       O  0.51801650  0.67744391  0.39305914    -0.83300
C3554       C  0.53771790  0.68948723  0.40821808     0.92200
O3555       O  0.53267340  0.60802571  0.26521660    -0.83200
Mg3556     Mg  0.64335611  0.66854557  0.31049678     1.58200
O3557       O  0.49103689  0.67379169  0.34531313    -0.81600
O3558       O  0.67924662  0.66310227  0.36022186    -0.83300
C3559       C  0.67478907  0.57156311  0.18853609     0.01800
C3560       C  0.67385778  0.59919931  0.18925065     0.01700
C3561       C  0.68178120  0.61751991  0.17065652    -0.18800
C3562       C  0.69072410  0.60901142  0.15168799     0.01800
C3563       C  0.69196965  0.58182706  0.15115024     0.01700
C3564       C  0.68427573  0.56353248  0.16953806    -0.18800
H3565       H  0.68517690  0.54257558  0.16892916     0.03800
H3566       H  0.68058438  0.63831943  0.17083014     0.03800
C3567       C  0.91484552  0.55965554  0.18388423     0.01800
C3568       C  0.94425199  0.58573256  0.18282746     0.01700
C3569       C  0.95267882  0.60423938  0.16437766    -0.18800
C3570       C  0.93266492  0.59697787  0.14663975     0.01800
C3571       C  0.90387486  0.56966362  0.14723180     0.01700
C3572       C  0.89516460  0.55182576  0.16602731    -0.18800
H3573       H  0.87274732  0.53159949  0.16676439     0.03800
H3574       H  0.97506349  0.62451853  0.16383094     0.03800
O3575       O  0.64398805  0.94472333  0.33674515    -0.88900
C3576       C  0.57602010  0.92575384  0.37954906     0.87200
Mg3577     Mg  0.64733967  0.96661066  0.30648134     1.58100
O3578       O  0.56978575  0.86276455  0.35052968    -0.88600
O3579       O  0.64230601  0.90381376  0.34958886    -0.75900
C3580       C  0.51031141  0.88901757  0.26086997     0.92200
O3581       O  0.60978271  0.98255078  0.34516767    -0.75700
O3582       O  0.53319182  0.91605737  0.26109005    -0.83200
Mg3583     Mg  0.63823124  0.96665557  0.36466700     1.58000
C3584       C  0.98234769  0.80224355  0.32456670     0.92100
O3585       O  0.66799195  0.95600942  0.38732733    -0.81500
H3586       H  0.58520511  0.83459910  0.34251363    -0.06800
C3587       C  0.51960057  0.89914127  0.32533991     0.87100
O3588       O  0.62546582  0.92071319  0.28833623    -0.76000
O3589       O  0.59799495  0.92429954  0.37237918    -0.88800
O3590       O  0.49801234  0.81175458  0.34192032    -0.81600
C3591       C  0.54174718  0.84122001  0.40386548     0.92300
C3592       C  0.66372028  0.93626453  0.40175005     0.92100
Mg3593     Mg  0.53582785  0.85963055  0.29854282     1.58000
O3594       O  0.50691209  0.86977237  0.27534761    -0.81500
O3595       O  0.56345569  0.84298024  0.31813839    -0.75700
O3596       O  0.56967321  0.86180496  0.40219733    -0.81600
O3597       O  0.68113228  0.51139291  0.35657079    -0.83300
O3598       O  0.60497131  0.96544667  0.26060243    -0.81600
C3599       C  0.57316495  0.84617540  0.33748071     0.86600
O3600       O  0.57623212  0.90185676  0.29057780    -0.88800
O3601       O  0.53006872  0.88179921  0.32643024    -0.88900
O3602       O  0.53111224  0.92201677  0.31284661    -0.75900
Mg3603     Mg  0.60434372  0.88527958  0.37502309     1.58000
O3604       O  0.52263600  0.83601056  0.38876375    -0.83300
H3605       H  0.67297846  0.93110107  0.32716573    -0.07000
O3606       O  0.60375427  0.96337042  0.31250811    -0.88600
H3607       H  0.58746419  0.99064245  0.32104034    -0.06800
H3608       H  0.59445209  0.88108419  0.27382994    -0.07000
C3609       C  0.59996127  0.97943323  0.32583266     0.86500
C3610       C  0.65412123  0.92706791  0.33746382     0.87100
C3611       C  0.59833191  0.90046637  0.28362794     0.87200
H3612       H  0.50060938  0.89507975  0.33551504    -0.07000
O3613       O  0.54878612  0.90554991  0.37503532    -0.76000
Mg3614     Mg  0.56947363  0.94084497  0.28755531     1.58000
H3615       H  0.58009723  0.94516947  0.38938516    -0.07000
C3616       C  0.68943572  0.52630257  0.33900710     0.92100
O3617       O  0.65153636  0.99000379  0.27487843    -0.83300
C3618       C  0.63322288  0.98534946  0.25934706     0.92200
O3619       O  0.64044675  0.90964266  0.40106130    -0.83200
Mg3620     Mg  0.52644171  0.85963271  0.35690641     1.58200
O3621       O  0.67535734  0.51448265  0.32134251    -0.81600
O3622       O  0.99187127  0.81664413  0.30688757    -0.83300
O3623       O  0.80837940  0.85963190  0.33971633    -0.88900
C3624       C  0.86438935  0.93051354  0.37989554     0.87200
Mg3625     Mg  0.82443638  0.85554047  0.30847888     1.58100
O3626       O  0.80484184  0.93707719  0.35586161    -0.88600
O3627       O  0.77239934  0.86481544  0.35514689    -0.75900
C3628       C  0.87970698  0.98974210  0.26307417     0.92200
O3629       O  0.88205553  0.89245489  0.34470071    -0.75700
O3630       O  0.88372980  0.96698575  0.26429733    -0.83200
Mg3631     Mg  0.83944112  0.86641228  0.36587966     1.58000
C3632       C  0.82479733  0.52092243  0.32927428     0.92100
O3633       O  0.80132516  0.83867157  0.39018052    -0.81500
H3634       H  0.76037198  0.92155704  0.35122510    -0.06800
C3635       C  0.88766158  0.98470600  0.32720553     0.87100
O3636       O  0.79915061  0.87737806  0.29204085    -0.76000
O3637       O  0.84017135  0.90842348  0.37362614    -0.88800
O3638       O  0.82509471  0.00863425  0.34714621    -0.81600
C3639       C  0.81962428  0.96647000  0.40984976     0.92300
C3640       C  0.79106452  0.84633291  0.40634180     0.92100
Mg3641     Mg  0.82842770  0.96746430  0.30299418     1.58000
O3642       O  0.86484219  0.99501989  0.27737595    -0.81500
O3643       O  0.78667467  0.94119836  0.32483059    -0.75700
O3644       O  0.81461560  0.93934403  0.40748057    -0.81600
O3645       O  0.83828366  0.82208501  0.35711362    -0.83300
O3646       O  0.85667030  0.89725169  0.26252073    -0.81600
C3647       C  0.78307338  0.93302596  0.34447646     0.86600
O3648       O  0.82932370  0.92663970  0.29544774    -0.88800
O3649       O  0.86023998  0.97589507  0.32920166    -0.88900
O3650       O  0.89697843  0.97111105  0.31477291    -0.75900
Mg3651     Mg  0.79646217  0.90380887  0.38012694     1.58000
O3652       O  0.82866406  0.98506903  0.39411126    -0.83300
H3653       H  0.76428954  0.83261453  0.33229848    -0.07000
O3654       O  0.86435418  0.89885416  0.31422220    -0.88600
H3655       H  0.90863773  0.91310310  0.31857347    -0.06800
H3656       H  0.78944235  0.90873515  0.27971076    -0.07000
C3657       C  0.88594523  0.90183368  0.32533674     0.86500
C3658       C  0.78110260  0.85135721  0.34201023     0.87100
C3659       C  0.80549956  0.90465960  0.28855421     0.87200
H3660       H  0.90404551  0.00382910  0.33683437    -0.07000
O3661       O  0.87055240  0.95778002  0.37646146    -0.76000
Mg3662     Mg  0.87379188  0.93228410  0.28993737     1.58000
H3663       H  0.88087958  0.92656135  0.38823090    -0.07000
C3664       C  0.84365581  0.81381748  0.33897618     0.92100
O3665       O  0.84362018  0.85203518  0.27639686    -0.83300
C3666       C  0.85464463  0.87125634  0.26116067     0.92200
O3667       O  0.78846222  0.86997187  0.40611542    -0.83200
Mg3668     Mg  0.84534702  0.98039622  0.36077128     1.58200
O3669       O  0.84574500  0.82841453  0.32175381    -0.81600
O3670       O  0.82787966  0.51045472  0.31130873    -0.83300
C3671       C  0.90204565  0.84098784  0.18614712     0.01800
C3672       C  0.93025282  0.84148704  0.18564629     0.01700
C3673       C  0.93808730  0.83108609  0.16675804    -0.18800
C3674       C  0.91896325  0.82175764  0.14827193     0.01800
C3675       C  0.89236534  0.82418402  0.14869745     0.01700
C3676       C  0.88410742  0.83337976  0.16752114    -0.18800
H3677       H  0.86308563  0.83415235  0.16777890     0.03800
H3678       H  0.95912252  0.83041427  0.16640961     0.03800
O3679       O  0.72185635  0.53042976  0.00452210    -0.88900
C3680       C  0.73924722  0.97875427  0.04708577     0.87200
Mg3681     Mg  0.69987396  0.51339291  0.97386840     1.58100
O3682       O  0.80299630  0.53438985  0.01820125    -0.88600
O3683       O  0.76393321  0.56804240  0.01782753    -0.75900
C3684       C  0.77028075  0.94741665  0.92974811     0.92200
O3685       O  0.68120595  0.95755205  0.01242214    -0.75700
O3686       O  0.74482534  0.94654934  0.92992880    -0.83200
Mg3687     Mg  0.69940416  0.00175065  0.03219585     1.58000
C3688       C  0.86120164  0.50602970  0.99235783     0.92100
O3689       O  0.71158474  0.54165338  0.05575858    -0.81500
H3690       H  0.83223339  0.57767195  0.01013051    -0.06800
C3691       C  0.76184248  0.94760083  0.99402781     0.87100
O3692       O  0.74573744  0.53490311  0.95602001    -0.76000
O3693       O  0.74132492  0.00214730  0.03928666    -0.88800
O3694       O  0.85145148  0.51172782  0.00969253    -0.81600
C3695       C  0.82381297  0.52601478  0.07210459     0.92300
C3696       C  0.73160492  0.55471690  0.07061778     0.92100
Mg3697     Mg  0.80335471  0.50167154  0.96679814     1.58000
O3698       O  0.78948823  0.95978625  0.94512009    -0.81500
O3699       O  0.82249611  0.54697032  0.98580240    -0.75700
O3700       O  0.80340706  0.53356050  0.07017142    -0.81600
O3701       O  0.65487201  0.00100562  0.02452888    -0.83300
O3702       O  0.70032794  0.97228967  0.92844865    -0.81600
C3703       C  0.81985243  0.55397622  0.00512516     0.86600
O3704       O  0.76236422  0.50277139  0.95926628    -0.88800
O3705       O  0.78110912  0.97502745  0.99484113    -0.88900
O3706       O  0.73876634  0.93759203  0.98158729    -0.75900
Mg3707     Mg  0.78131187  0.54666802  0.04280950     1.58000
O3708       O  0.82975337  0.51320216  0.05666361    -0.83300
H3709       H  0.73745171  0.57372433  0.99576150    -0.07000
O3710       O  0.70036125  0.97165857  0.98013508    -0.88600
H3711       H  0.67107495  0.92806643  0.98727274    -0.06800
H3712       H  0.78486752  0.54130503  0.94229665    -0.07000
C3713       C  0.68346353  0.95152357  0.99282189     0.86500
C3714       C  0.74059115  0.55796204  0.00569622     0.87100
C3715       C  0.76513108  0.52669140  0.95195004     0.87200
H3716       H  0.76439460  0.93185852  0.00439640    -0.07000
O3717       O  0.75914076  0.97110650  0.04332095    -0.76000
Mg3718     Mg  0.72188053  0.95878774  0.95590239     1.58000
H3719       H  0.71976942  0.96417348  0.05695939    -0.07000
C3720       C  0.64098177  0.99756012  0.00659800     0.92100
O3721       O  0.67534830  0.99418028  0.94201827    -0.83300
C3722       C  0.68034034  0.98044278  0.92671427     0.92200
O3723       O  0.75784582  0.55756744  0.06906042    -0.83200
Mg3724     Mg  0.80458749  0.99344899  0.02495520     1.58200
O3725       O  0.65339904  0.99781089  0.98871495    -0.81600
O3726       O  0.84608720  0.49955801  0.97478785    -0.83300
O3727       O  0.78175685  0.80633316  0.99422926    -0.88900
C3728       C  0.76505171  0.73502105  0.95451720     0.87200
Mg3729     Mg  0.80279495  0.81074501  0.02496452     1.58100
O3730       O  0.70062750  0.72881656  0.98053143    -0.88600
O3731       O  0.73960281  0.80117148  0.98062057    -0.75900
C3732       C  0.72574634  0.67727252  0.07216606     0.92200
O3733       O  0.82167594  0.77274636  0.98847394    -0.75700
O3734       O  0.75198041  0.70077406  0.07095519    -0.83200
Mg3735     Mg  0.80446915  0.79863558  0.96754743     1.58000
C3736       C  0.63745710  0.64482675  0.00674623     0.92100
O3737       O  0.79339248  0.82589446  0.94325092    -0.81500
H3738       H  0.67086870  0.74328013  0.98528181    -0.06800
C3739       C  0.73663695  0.68095165  0.00805862     0.87100
O3740       O  0.75603532  0.78867260  0.04193061    -0.76000
O3741       O  0.76297427  0.75713506  0.96076925    -0.88800
O3742       O  0.64953576  0.65785353  0.98896067    -0.81600
C3743       C  0.68309810  0.69944107  0.92709517     0.92300
C3744       C  0.77331363  0.81965928  0.92863791     0.92100
Mg3745     Mg  0.69507352  0.69776847  0.03257848     1.58000
O3746       O  0.70568477  0.67066964  0.05746382    -0.81500
O3747       O  0.67800030  0.72342291  0.01143187    -0.75700
O3748       O  0.70484768  0.72674244  0.92907665    -0.81600
O3749       O  0.84777424  0.84256454  0.97513701    -0.83300
O3750       O  0.79382303  0.77028904  0.07112184    -0.81600
C3751       C  0.68254343  0.73214313  0.99191905     0.86600
O3752       O  0.73671682  0.73926981  0.03927304    -0.88800
O3753       O  0.71806315  0.68986019  0.00620007    -0.88900
O3754       O  0.75988944  0.69470894  0.02024664    -0.75900
Mg3755     Mg  0.72356586  0.76200874  0.95597019     1.58000
O3756       O  0.67522419  0.68075249  0.94264093    -0.83300
H3757       H  0.76585388  0.83402597  0.00248838    -0.07000
O3758       O  0.79923462  0.76721736  0.01949278    -0.88600
H3759       H  0.82864111  0.75237647  0.01440846    -0.06800
H3760       H  0.71524937  0.75780344  0.05477742    -0.07000
C3761       C  0.81709777  0.76374567  0.00794104     0.86500
C3762       C  0.76290858  0.81492715  0.99274366     0.87100
C3763       C  0.73510888  0.76151948  0.04581468     0.87200
H3764       H  0.73350044  0.66155570  0.99859181    -0.07000
O3765       O  0.74458851  0.70778789  0.95867363    -0.76000
Mg3766     Mg  0.77594381  0.73440985  0.04445966     1.58000
H3767       H  0.78511202  0.73897389  0.94571350    -0.07000
C3768       C  0.86206778  0.85244363  0.99290321     0.92100
O3769       O  0.82612952  0.81507412  0.05692714    -0.83300
C3770       C  0.81691304  0.79686664  0.07279884     0.92200
O3771       O  0.74713399  0.79609544  0.92970360    -0.83200
Mg3772     Mg  0.69764497  0.68548291  0.97513838     1.58200
O3773       O  0.85066600  0.83882705  0.01066992    -0.81600
O3774       O  0.65166948  0.65404811  0.02464358    -0.83300
O3775       O  0.52333043  0.71784903  0.99323635    -0.88900
C3776       C  0.97223864  0.73549480  0.95068800     0.87200
Mg3777     Mg  0.50577745  0.69634272  0.02427858     1.58100
O3778       O  0.53061802  0.79896332  0.97862717    -0.88600
O3779       O  0.56178993  0.75751945  0.97857842    -0.75900
C3780       C  0.94825009  0.77561348  0.07055252     0.92200
O3781       O  0.95122176  0.67960077  0.98625053    -0.75700
O3782       O  0.94334994  0.74826141  0.07004171    -0.83200
Mg3783     Mg  0.99449857  0.69499141  0.96566906     1.58000
C3784       C  0.50887560  0.86186506  0.00527855     0.92100
O3785       O  0.53308614  0.70469927  0.94137389    -0.81500
H3786       H  0.57450050  0.82579175  0.98657713    -0.06800
C3787       C  0.94502121  0.76343148  0.00570985     0.87100
O3788       O  0.53008231  0.74239086  0.04209061    -0.76000
O3789       O  0.99605746  0.73713108  0.95725498    -0.88800
O3790       O  0.50991670  0.84969667  0.98751741    -0.81600
C3791       C  0.52170266  0.82100006  0.92567327     0.92300
C3792       C  0.54707741  0.72380728  0.92627663     0.92100
Mg3793     Mg  0.50207281  0.80338194  0.03171773     1.58000
O3794       O  0.96411548  0.79474162  0.05598496    -0.81500
O3795       O  0.54509928  0.81806502  0.01120271    -0.75700
O3796       O  0.53012629  0.80109885  0.92676133    -0.81600
O3797       O  0.99437720  0.65108006  0.97440978    -0.83300
O3798       O  0.96556716  0.69841033  0.07108435    -0.81600
C3799       C  0.55098815  0.81487625  0.99171244     0.86600
O3800       O  0.49953765  0.76107950  0.04010308    -0.88800
O3801       O  0.97279427  0.78067601  0.00425613    -0.88900
O3802       O  0.93397242  0.74080446  0.01842382    -0.75900
Mg3803     Mg  0.54145892  0.77618273  0.95355337     1.58000
O3804       O  0.50796300  0.82525163  0.94128226    -0.83300
H3805       H  0.56648350  0.73138400  0.00144870    -0.07000
O3806       O  0.96509292  0.69923783  0.01877760    -0.88600
H3807       H  0.92139747  0.67171122  0.01063238    -0.06800
H3808       H  0.53887022  0.78206669  0.05654279    -0.07000
C3809       C  0.94497345  0.68296004  0.00563181     0.86500
C3810       C  0.55105708  0.73513268  0.99152367     0.87100
C3811       C  0.52319109  0.76258000  0.04688472     0.87200
H3812       H  0.92983666  0.76730880  0.99561187    -0.07000
O3813       O  0.96533768  0.75567119  0.95556299    -0.76000
Mg3814     Mg  0.95399356  0.72243939  0.04376179     1.58000
H3815       H  0.95646285  0.71593984  0.94112545    -0.07000
C3816       C  0.98990731  0.63701773  0.99223613     0.92100
O3817       O  0.98647524  0.67296475  0.05642741    -0.83300
C3818       C  0.97271319  0.67753457  0.07192446     0.92200
O3819       O  0.55142534  0.75090234  0.92691321    -0.83200
Mg3820     Mg  0.98988246  0.80187880  0.97329620     1.58200
O3821       O  0.98658403  0.64836260  0.00976416    -0.81600
O3822       O  0.50382172  0.84778542  0.02313976    -0.83300
O3823       O  0.64218166  0.52402746  0.67065720    -0.88900
C3824       C  0.69606629  0.59664334  0.71009906     0.87200
Mg3825     Mg  0.65647227  0.51910392  0.63899560     1.58100
O3826       O  0.63540361  0.59964621  0.68435625    -0.88600
O3827       O  0.60476567  0.52719005  0.68541064    -0.75900
C3828       C  0.71213673  0.65418535  0.59253822     0.92200
O3829       O  0.71573618  0.55957743  0.67454209    -0.75700
O3830       O  0.71700218  0.63182408  0.59295951    -0.83200
Mg3831     Mg  0.67455145  0.53330015  0.69672483     1.58000
C3832       C  0.65477445  0.68392919  0.65759687     0.92100
O3833       O  0.63912248  0.50608822  0.72303908    -0.81500
H3834       H  0.59080081  0.58299864  0.67935877    -0.06800
C3835       C  0.71839239  0.64861800  0.65611913     0.87100
O3836       O  0.63094454  0.54049073  0.62266761    -0.76000
O3837       O  0.67245727  0.57390447  0.70376664    -0.88800
O3838       O  0.65344532  0.67057515  0.67527764    -0.81600
C3839       C  0.64626128  0.62992245  0.73698673     0.92300
C3840       C  0.62556570  0.51243299  0.73777853     0.92100
Mg3841     Mg  0.65935497  0.63027926  0.63160964     1.58000
O3842       O  0.69578198  0.65735586  0.60671135    -0.81500
O3843       O  0.61733073  0.60335763  0.65316674    -0.75700
O3844       O  0.64307037  0.60340072  0.73596603    -0.81600
O3845       O  0.67645940  0.99034176  0.68878053    -0.83300
O3846       O  0.69287850  0.56021765  0.59198897    -0.81600
C3847       C  0.61359860  0.59500195  0.67278130     0.86600
O3848       O  0.66143984  0.58988331  0.62393980    -0.88800
O3849       O  0.69083858  0.63915687  0.65799757    -0.88900
O3850       O  0.72830509  0.63550461  0.64374086    -0.75900
Mg3851     Mg  0.62748622  0.56724173  0.70932267     1.58000
O3852       O  0.65691764  0.64847694  0.72133687    -0.83300
H3853       H  0.59852791  0.49419764  0.66384559    -0.07000
O3854       O  0.69735627  0.56289150  0.64335125    -0.88600
H3855       H  0.74188097  0.57884533  0.64804887    -0.06800
H3856       H  0.62092724  0.57087237  0.60904441    -0.07000
C3857       C  0.71918864  0.56730667  0.65481187     0.86500
C3858       C  0.61461265  0.51403658  0.67303818     0.87100
C3859       C  0.63736211  0.56743453  0.61793825     0.87200
H3860       H  0.73440889  0.66798739  0.66574760    -0.07000
O3861       O  0.70145328  0.62346201  0.70595291    -0.76000
Mg3862     Mg  0.70674322  0.59634400  0.61890197     1.58000
H3863       H  0.71276312  0.59364946  0.71901544    -0.07000
C3864       C  0.67890015  0.97985886  0.67059042     0.92100
O3865       O  0.67188001  0.51344352  0.60563029    -0.83300
C3866       C  0.68382248  0.53186521  0.58992654     0.92200
O3867       O  0.62002830  0.53413898  0.73578893    -0.83200
Mg3868     Mg  0.67506892  0.64387770  0.68911890     1.58200
O3869       O  0.67643756  0.49107988  0.65280300    -0.81600
O3870       O  0.65848195  0.67392817  0.63959298    -0.83300
C3871       C  0.61306147  0.68274347  0.84940740     0.01800
C3872       C  0.58605639  0.68461505  0.84986988     0.01700
C3873       C  0.56682613  0.67491343  0.83149482    -0.18800
C3874       C  0.57490534  0.66529816  0.81245430     0.01800
C3875       C  0.60321199  0.66604625  0.81167261     0.01700
C3876       C  0.62116766  0.67354890  0.83037363    -0.18800
H3877       H  0.64163212  0.67176271  0.83017709     0.03800
H3878       H  0.54546797  0.67497308  0.83196208     0.03800
C3879       C  0.56627346  0.90791310  0.85498321     0.01800
C3880       C  0.59579985  0.93411783  0.85452390     0.01700
C3881       C  0.60632583  0.95083048  0.83532696    -0.18800
C3882       C  0.58838815  0.94195380  0.81654740     0.01800
C3883       C  0.55843390  0.91679553  0.81724385     0.01700
C3884       C  0.54767234  0.90020691  0.83646457    -0.18800
H3885       H  0.52482405  0.88058745  0.83684772     0.03800
H3886       H  0.62908469  0.97060451  0.83485330     0.03800
O3887       O  0.96811953  0.61967107  0.67390739    -0.88900
C3888       C  0.90060340  0.59968772  0.71778607     0.87200
Mg3889     Mg  0.96990297  0.64058201  0.64315208     1.58100
O3890       O  0.89602839  0.53651015  0.68962530    -0.88600
O3891       O  0.96828056  0.58000220  0.68748070    -0.75900
C3892       C  0.83302417  0.55686117  0.59998129     0.92200
O3893       O  0.93270942  0.65634276  0.68196675    -0.75700
O3894       O  0.85540755  0.58407923  0.59971396    -0.83200
Mg3895     Mg  0.96243064  0.64209297  0.70163830     1.58000
C3896       C  0.80950410  0.97146219  0.66446341     0.92100
O3897       O  0.99293326  0.63400298  0.72522273    -0.81500
H3898       H  0.91325590  0.50995698  0.68137439    -0.06800
C3899       C  0.84304752  0.56984163  0.66465100     0.87100
O3900       O  0.94873571  0.59406902  0.62582400    -0.76000
O3901       O  0.92301156  0.59916175  0.71050814    -0.88800
O3902       O  0.82359415  0.98289433  0.68220334    -0.81600
C3903       C  0.86956004  0.51574883  0.74349285     0.92300
C3904       C  0.99003561  0.61489097  0.73976113     0.92100
Mg3905     Mg  0.86008852  0.53092138  0.63802019     1.58000
O3906       O  0.82823763  0.53939846  0.61607868    -0.81500
O3907       O  0.88998636  0.51665003  0.65722343    -0.75700
O3908       O  0.89737908  0.53675672  0.74172085    -0.81600
O3909       O  0.50548478  0.68597848  0.69197007    -0.83300
O3910       O  0.92516598  0.63451563  0.59784913    -0.81600
C3911       C  0.90012735  0.52045604  0.67649308     0.86600
O3912       O  0.89945768  0.57365476  0.62945885    -0.88800
O3913       O  0.85393232  0.55283045  0.66579684    -0.88900
O3914       O  0.85368543  0.59223876  0.65169339    -0.75900
Mg3915     Mg  0.93119748  0.56102677  0.71365270     1.58000
O3916       O  0.85037898  0.50961550  0.72828949    -0.83300
H3917       H  0.99768514  0.60682913  0.66426327    -0.07000
O3918       O  0.92589873  0.63584187  0.64975894    -0.88600
H3919       H  0.90895993  0.66267030  0.65795974    -0.06800
H3920       H  0.91797201  0.55329014  0.61254640    -0.07000
C3921       C  0.92207195  0.65213760  0.66281949     0.86500
C3922       C  0.97902580  0.60268704  0.67481922     0.87100
C3923       C  0.92165976  0.57286778  0.62203019     0.87200
H3924       H  0.82438267  0.56587195  0.67513782    -0.07000
O3925       O  0.87363335  0.57836318  0.71382351    -0.76000
Mg3926     Mg  0.89112173  0.61115978  0.62563304     1.58000
H3927       H  0.90401099  0.61913789  0.72731402    -0.07000
C3928       C  0.51344322  0.70007294  0.67406550     0.92100
O3929       O  0.97206803  0.66294526  0.61100424    -0.83300
C3930       C  0.95258793  0.65613270  0.59589739     0.92200
O3931       O  0.96820818  0.58738379  0.73905270    -0.83200
Mg3932     Mg  0.85204344  0.53180404  0.69639402     1.58200
O3933       O  0.99680450  0.68909347  0.65724147    -0.81600
O3934       O  0.81836332  0.98623687  0.64685965    -0.83300
O3935       O  0.85824686  0.80458909  0.66244024    -0.88900
C3936       C  0.92598304  0.85913893  0.62037327     0.87200
Mg3937     Mg  0.85213961  0.82079856  0.69306870     1.58100
O3938       O  0.93618931  0.80361499  0.64728412    -0.88600
O3939       O  0.86360886  0.76822549  0.64774965    -0.75900
C3940       C  0.98761067  0.88600582  0.73846227     0.92200
O3941       O  0.88769707  0.87734150  0.65477305    -0.75700
O3942       O  0.96423833  0.88908198  0.73735750    -0.83200
Mg3943     Mg  0.86291810  0.83290855  0.63503692     1.58000
C3944       C  0.52282640  0.83196825  0.67382126     0.92100
O3945       O  0.83538534  0.79183408  0.61281405    -0.81500
H3946       H  0.92296847  0.76011110  0.65401429    -0.06800
C3947       C  0.98068908  0.88951256  0.67383293     0.87100
O3948       O  0.87715212  0.79997479  0.71098227    -0.76000
O3949       O  0.90521785  0.83492490  0.62757298    -0.88800
O3950       O  0.00878837  0.82934566  0.65612463    -0.81600
C3951       C  0.96512458  0.81379670  0.59429552     0.92300
C3952       C  0.84285708  0.78193390  0.59635439     0.92100
Mg3953     Mg  0.96764642  0.83330565  0.69975512     1.58000
O3954       O  0.99391751  0.87215018  0.72392184    -0.81500
O3955       O  0.94253475  0.78943302  0.67927278    -0.75700
O3956       O  0.93737513  0.80711990  0.59550758    -0.81600
O3957       O  0.81846932  0.83085882  0.64255900    -0.83300
O3958       O  0.89340249  0.86256395  0.73841096    -0.81600
C3959       C  0.93364825  0.78346508  0.65973699     0.86600
O3960       O  0.92562186  0.83240245  0.70726872    -0.88800
O3961       O  0.97287589  0.86221011  0.67251532    -0.88900
O3962       O  0.96685281  0.89875977  0.68605797    -0.75900
Mg3963     Mg  0.90203493  0.79142507  0.62261804     1.58000
O3964       O  0.98376313  0.82733532  0.60971248    -0.83300
H3965       H  0.83198796  0.76079840  0.67065885    -0.07000
O3966       O  0.89384536  0.86332124  0.68689317    -0.88600
H3967       H  0.90654206  0.90668829  0.68009126    -0.06800
H3968       H  0.91046822  0.79425337  0.72457158    -0.07000
C3969       C  0.89618770  0.88334952  0.67437902     0.86500
C3970       C  0.85031827  0.77728293  0.66070689     0.87100
C3971       C  0.90488089  0.80851543  0.71485201     0.87200
H3972       H  0.99919155  0.90579829  0.66389877    -0.07000
O3973       O  0.95372135  0.86763152  0.62422925    -0.76000
Mg3974     Mg  0.92862945  0.87645896  0.71119933     1.58000
H3975       H  0.92040592  0.87370287  0.61099919    -0.07000
C3976       C  0.80716970  0.83370776  0.66013550     0.92100
O3977       O  0.84628639  0.83928368  0.72499420    -0.83300
C3978       C  0.86509469  0.85349550  0.74024537     0.92200
O3979       O  0.86737619  0.78089931  0.59601162    -0.83200
Mg3980     Mg  0.97814451  0.84578065  0.64169561     1.58200
O3981       O  0.81968357  0.83505918  0.67828884    -0.81600
O3982       O  0.51282041  0.83547283  0.69183431    -0.83300
C3983       C  0.81000834  0.89010786  0.85009343     0.01800
C3984       C  0.81039818  0.91808450  0.85071798     0.01700
C3985       C  0.81988938  0.93699783  0.83259713    -0.18800
C3986       C  0.82990204  0.92892557  0.81384887     0.01800
C3987       C  0.82892354  0.90032421  0.81308081     0.01700
C3988       C  0.81887324  0.88130180  0.83130632    -0.18800
H3989       H  0.81818561  0.85953458  0.83095770     0.03800
H3990       H  0.82031796  0.95862614  0.83335253     0.03800
C3991       C  0.50601879  0.73854074  0.48243239     0.01800
C3992       C  0.50859250  0.76770957  0.48164491     0.01700
C3993       C  0.50157084  0.77912972  0.50011187    -0.18800
C3994       C  0.99292795  0.76267164  0.51948771     0.01800
C3995       C  0.99169930  0.73412214  0.52048947     0.01700
C3996       C  0.49790455  0.72228414  0.50187641    -0.18800
H3997       H  0.49641517  0.70015363  0.50253269     0.03800
H3998       H  0.50289002  0.80117893  0.49940721     0.03800
C3999       C  0.73239590  0.74581594  0.48246823     0.01800
C4000       C  0.75972237  0.77433624  0.48387956     0.01700
C4001       C  0.77911453  0.78096037  0.50176435    -0.18800
C4002       C  0.77131917  0.75997623  0.51858506     0.01800
C4003       C  0.74380946  0.73176400  0.51749067     0.01700
C4004       C  0.72471900  0.72471448  0.49934715    -0.18800
H4005       H  0.70378823  0.70289384  0.49843964     0.03800
H4006       H  0.80030143  0.80257001  0.50263091     0.03800
C4007       C  0.76689867  0.99352435  0.48315773     0.01800
C4008       C  0.73621984  0.98581619  0.47971320     0.01700
C4009       C  0.72021981  0.99042630  0.49646731    -0.18800
C4010       C  0.73414202  0.50254440  0.51655113     0.01800
C4011       C  0.76512483  0.51123649  0.51972919     0.01700
C4012       C  0.78110180  0.00657204  0.50298157    -0.18800
H4013       H  0.80458722  0.01243370  0.50560813     0.03800
H4014       H  0.69660735  0.98417072  0.49394220     0.03800
C4015       C  0.49757232  0.52626394  0.00175221     0.01800
C4016       C  0.52627348  0.52808906  0.00342292     0.01800
C4017       C  0.52820131  0.00120246  0.00436357     0.01800
C4018       C  0.50132928  0.97232261  0.00324746     0.01800
C4019       C  0.97235935  0.97027763  0.00212989     0.01800
C4020       C  0.97056780  0.99740812  0.00109472     0.01800
C4021       C  0.86021979  0.66533792  0.32696912     0.01800
C4022       C  0.86193790  0.69409677  0.32670530     0.01800
C4023       C  0.83509884  0.69586606  0.32971190     0.01800
C4024       C  0.80658045  0.66888968  0.33231832     0.01800
C4025       C  0.80456859  0.64011112  0.33045873     0.01800
C4026       C  0.83138499  0.63836904  0.32773098     0.01800
C4027       C  0.63764629  0.83440813  0.66183215     0.01800
C4028       C  0.66722591  0.86061763  0.66222814     0.01800
C4029       C  0.69324529  0.85756599  0.65910056     0.01800
C4030       C  0.68996072  0.82817997  0.65647552     0.01800
C4031       C  0.66034785  0.80169367  0.65608181     0.01800
C4032       C  0.63414051  0.80488862  0.65874316     0.01800
C4033       C  0.55298658  0.83382412  0.67232942    -0.06600
C4034       C  0.57053624  0.84781514  0.65382869    -0.17800
C4035       C  0.59865205  0.84970845  0.65026921     0.10600
C4036       C  0.61002223  0.83725585  0.66571373    -0.06600
C4037       C  0.59319460  0.82460492  0.68475974    -0.17800
C4038       C  0.56497399  0.82271856  0.68821167     0.10600
S4039       S  0.61732840  0.86724002  0.62512654    -0.32800
S4040       S  0.54439392  0.80383945  0.71226667    -0.32800
H4041       H  0.54589753  0.83043805  0.72067852     0.28600
H4042       H  0.63935364  0.85826453  0.62477550     0.28600
H4043       H  0.56205308  0.85718760  0.64170927     0.19200
H4044       H  0.60184122  0.81539115  0.69685924     0.19200
C4045       C  0.77741589  0.83295225  0.65946359    -0.06600
C4046       C  0.75933257  0.82148954  0.64067198    -0.17800
C4047       C  0.73037462  0.81843707  0.63919455     0.10600
C4048       C  0.71825622  0.82588895  0.65726967    -0.06600
C4049       C  0.73544688  0.83537948  0.67648452    -0.17800
C4050       C  0.76514571  0.84041210  0.67749386     0.10600
S4051       S  0.71087945  0.80515490  0.61365744    -0.32800
S4052       S  0.78647706  0.85852570  0.70173055    -0.32800
H4053       H  0.81297002  0.87926415  0.69054317     0.28600
H4054       H  0.69408674  0.82008724  0.61526406     0.28600
H4055       H  0.76786064  0.81498763  0.62678506     0.19200
H4056       H  0.72631274  0.84099356  0.69047445     0.19200
C4057       C  0.85441070  0.86250966  0.75981397    -0.06600
C4058       C  0.82998681  0.86811690  0.75752149    -0.17800
C4059       C  0.82123763  0.88058874  0.77439833     0.10600
C4060       C  0.83800069  0.88895701  0.79395606    -0.06600
C4061       C  0.86193949  0.88273080  0.79649232    -0.17800
C4062       C  0.86995805  0.86921480  0.77991187     0.10600
S4063       S  0.78787881  0.88408583  0.77006533    -0.32800
S4064       S  0.89924450  0.85992760  0.78587516    -0.32800
H4065       H  0.88559956  0.83261156  0.77378135     0.28600
H4066       H  0.77811227  0.87942952  0.79168466     0.28600
H4067       H  0.81765871  0.86297270  0.74235532     0.19200
H4068       H  0.87407989  0.88786097  0.81179664     0.19200
C4069       C  0.79160411  0.76764317  0.53766492    -0.06600
C4070       C  0.80626867  0.75071287  0.54128729    -0.17800
C4071       C  0.82197995  0.75360773  0.56061625     0.10600
C4072       C  0.82376915  0.77449851  0.57660887    -0.06600
C4073       C  0.80944327  0.79175734  0.57269047    -0.17800
C4074       C  0.79337891  0.78853254  0.55355755     0.10600
S4075       S  0.83791343  0.72904702  0.56416396    -0.32800
S4076       S  0.77551106  0.81158033  0.55070148    -0.32800
H4077       H  0.75094734  0.79137662  0.53753958     0.28600
H4078       H  0.83101890  0.72409687  0.58633581     0.28600
H4079       H  0.80446344  0.73425219  0.52925015     0.19200
H4080       H  0.81106500  0.80834093  0.58456093     0.19200
C4081       C  0.98589867  0.77621972  0.53842051    -0.06600
C4082       C  0.00389731  0.78307987  0.55714024    -0.17800
C4083       C  0.99822933  0.79585344  0.57542976     0.10600
C4084       C  0.97478384  0.80346725  0.57482475    -0.06600
C4085       C  0.95744427  0.79737662  0.55573139    -0.17800
C4086       C  0.96231523  0.78342460  0.53781413     0.10600
S4087       S  0.02040516  0.79965728  0.59930606    -0.32800
S4088       S  0.93675757  0.77428910  0.51503887    -0.32800
H4089       H  0.93694728  0.74759474  0.50890405     0.28600
H4090       H  0.99468380  0.78355798  0.61256724     0.28600
H4091       H  0.52210869  0.77773078  0.55770524     0.19200
H4092       H  0.93909106  0.80250975  0.55497470     0.19200
C4093       C  0.78126680  0.94076578  0.66412332    -0.06600
C4094       C  0.77114706  0.92546053  0.64413845    -0.17800
C4095       C  0.74286590  0.89869739  0.64191306     0.10600
C4096       C  0.72439402  0.88553027  0.66030820    -0.06600
C4097       C  0.73493290  0.90002486  0.68045464    -0.17800
C4098       C  0.76248037  0.92763853  0.68251061     0.10600
S4099       S  0.73126076  0.88413187  0.61481881    -0.32800
S4100       S  0.77061719  0.94583037  0.70870286    -0.32800
H4101       H  0.77492999  0.97365837  0.70053580     0.28600
H4102       H  0.69967650  0.86916326  0.61825750     0.28600
H4103       H  0.78480514  0.93515222  0.62977917     0.19200
H4104       H  0.72084459  0.89032011  0.69461895     0.19200
C4105       C  0.60321179  0.77722922  0.66154394    -0.06600
C4106       C  0.59737358  0.76146617  0.68119289    -0.17800
C4107       C  0.56811084  0.73798993  0.68661608     0.10600
C4108       C  0.54362680  0.72873921  0.67170618    -0.06600
C4109       C  0.54956075  0.74483973  0.65212174    -0.17800
C4110       C  0.57863041  0.76873882  0.64687930     0.10600
S4111       S  0.56409383  0.72111790  0.71284245    -0.32800
S4112       S  0.58187202  0.78634902  0.62093230    -0.32800
H4113       H  0.61323389  0.80641362  0.62127793     0.28600
H4114       H  0.54001438  0.72589348  0.71886244     0.28600
H4115       H  0.61569575  0.76843093  0.69288214     0.19200
H4116       H  0.53138758  0.73840287  0.64038779     0.19200
C4117       C  0.84095899  0.95124318  0.79581375    -0.06600
C4118       C  0.82049500  0.95930553  0.78677753    -0.17800
C4119       C  0.82957575  0.98158527  0.77064544     0.10600
C4120       C  0.85985331  0.49596812  0.76295807    -0.06600
C4121       C  0.88064560  0.48874121  0.77260977    -0.17800
C4122       C  0.87171929  0.96705016  0.78914716     0.10600
S4123       S  0.80269782  0.99248947  0.76088980    -0.32800
S4124       S  0.90095774  0.46154837  0.80144498    -0.32800
H4125       H  0.88777417  0.95368632  0.82209465     0.28600
H4126       H  0.77745780  0.97124267  0.77291107     0.28600
H4127       H  0.79726707  0.94813795  0.79260944     0.19200
H4128       H  0.90402793  0.49980677  0.76705150     0.19200
C4129       C  0.81327804  0.54433862  0.58047660    -0.06600
C4130       C  0.80620801  0.56328179  0.56811714    -0.17800
C4131       C  0.79041324  0.55327711  0.54834180     0.10600
C4132       C  0.78097466  0.52339562  0.54078559    -0.06600
C4133       C  0.78774248  0.50443585  0.55321397    -0.17800
C4134       C  0.80376155  0.51444458  0.57274689     0.10600
S4135       S  0.78440696  0.58030355  0.53325032    -0.32800
S4136       S  0.81312562  0.98847328  0.58604226    -0.32800
H4137       H  0.84392018  0.01052952  0.58954918     0.28600
H4138       H  0.78267330  0.56775091  0.51263537     0.28600
H4139       H  0.81373100  0.58633716  0.57363224     0.19200
H4140       H  0.78103015  0.98170745  0.54733704     0.19200
C4141       C  0.96182564  0.67495012  0.57595738    -0.06600
C4142       C  0.99212305  0.68799095  0.56884792    -0.17800
C4143       C  0.50274143  0.70809646  0.55129841     0.10600
C4144       C  0.98265288  0.71535495  0.54036374    -0.06600
C4145       C  0.95259903  0.70280527  0.54757381    -0.17800
C4146       C  0.94199026  0.68281055  0.56512550     0.10600
S4147       S  0.54227476  0.72416851  0.54393074    -0.32800
S4148       S  0.90352244  0.66984300  0.57373497    -0.32800
H4149       H  0.89344138  0.63944208  0.56757187     0.28600
H4150       H  0.54605625  0.75162108  0.53550080     0.28600
H4151       H  0.50780759  0.68278019  0.57719325     0.19200
H4152       H  0.93715166  0.70839984  0.53928852     0.19200
C4153       C  0.53837371  0.90769281  0.79789478    -0.06600
C4154       C  0.53101851  0.92880536  0.78904118    -0.17800
C4155       C  0.51529170  0.92303957  0.76935774     0.10600
C4156       C  0.50625406  0.89531767  0.75836114    -0.06600
C4157       C  0.51258085  0.87377450  0.76766332    -0.17800
C4158       C  0.52826686  0.87944477  0.78727075     0.10600
S4159       S  0.50855968  0.95232628  0.75880165    -0.32800
S4160       S  0.53451055  0.84953917  0.79748348    -0.32800
H4161       H  0.56173923  0.86812443  0.80878773     0.28600
H4162       H  0.51110802  0.94631654  0.73690410     0.28600
H4163       H  0.53840380  0.95036989  0.79725764     0.19200
H4164       H  0.00482712  0.85197667  0.75967414     0.19200
C4165       C  0.55297242  0.65333762  0.79397343    -0.06600
C4166       C  0.52666586  0.62460199  0.79596485    -0.17800
C4167       C  0.00600450  0.61112908  0.77871720     0.10600
C4168       C  0.51199554  0.62624864  0.75845159    -0.06600
C4169       C  0.53865660  0.65500291  0.75662518    -0.17800
C4170       C  0.55860378  0.66887769  0.77413117     0.10600
S4171       S  0.97204772  0.57532571  0.78421154    -0.32800
S4172       S  0.59025565  0.70689487  0.77030348    -0.32800
H4173       H  0.59157861  0.71646707  0.79186214     0.28600
H4174       H  0.95230458  0.58597980  0.77787804     0.28600
H4175       H  0.52214985  0.61256071  0.81119213     0.19200
H4176       H  0.54370376  0.66734512  0.74154523     0.19200
C4177       C  0.65354753  0.71273406  0.65819265    -0.06600
C4178       C  0.64270159  0.72094016  0.63998336    -0.17800
C4179       C  0.64422763  0.74934184  0.63863628     0.10600
C4180       C  0.65715959  0.77059701  0.65597741    -0.06600
C4181       C  0.66728846  0.76205436  0.67437577    -0.17800
C4182       C  0.66572801  0.73373043  0.67571168     0.10600
S4183       S  0.63003000  0.75651042  0.61389664    -0.32800
S4184       S  0.68195218  0.72705990  0.69960426    -0.32800
H4185       H  0.65353967  0.70346226  0.70677179     0.28600
H4186       H  0.64441331  0.78815443  0.61600187     0.28600
H4187       H  0.63340843  0.70524106  0.62641690     0.19200
H4188       H  0.67681432  0.77785528  0.68787136     0.19200
C4189       C  0.67160601  0.89181831  0.66562798    -0.06600
C4190       C  0.68393693  0.91268108  0.64856823    -0.17800
C4191       C  0.68996476  0.94262268  0.65062472     0.10600
C4192       C  0.68137880  0.95182563  0.66973673    -0.06600
C4193       C  0.67045757  0.93145681  0.68726838    -0.17800
C4194       C  0.66637443  0.90198630  0.68565355     0.10600
S4195       S  0.70952080  0.96792754  0.62841870    -0.32800
S4196       S  0.65514190  0.87916155  0.70988181    -0.32800
H4197       H  0.66508711  0.85883593  0.70376313     0.28600
H4198       H  0.72649436  0.99376505  0.64164747     0.28600
H4199       H  0.68937588  0.90568644  0.63346716     0.19200
H4200       H  0.66442417  0.93823953  0.70226037     0.19200
C4201       C  0.61735335  0.99496009  0.75825445    -0.06600
C4202       C  0.61219904  0.96497837  0.75816411    -0.17800
C4203       C  0.60523103  0.94801835  0.77725069     0.10600
C4204       C  0.60085558  0.96024745  0.79662187    -0.06600
C4205       C  0.60715844  0.99048356  0.79694023    -0.17800
C4206       C  0.61665967  0.50832224  0.77832591     0.10600
S4207       S  0.60401844  0.91185892  0.77601729    -0.32800
S4208       S  0.63032415  0.54847760  0.78200413    -0.32800
H4209       H  0.65566714  0.55797757  0.76836528     0.28600
H4210       H  0.61226960  0.91196414  0.79777625     0.28600
H4211       H  0.61434613  0.95491219  0.74324433     0.19200
H4212       H  0.60517574  0.00045424  0.81196751     0.19200
C4213       C  0.63565027  0.63864279  0.75647823    -0.06600
C4214       C  0.65321542  0.66812393  0.76503039    -0.17800
C4215       C  0.64274158  0.67801880  0.78245739     0.10600
C4216       C  0.61425958  0.65772601  0.79200624    -0.06600
C4217       C  0.59671840  0.62830546  0.78334583    -0.17800
C4218       C  0.60666620  0.61887451  0.76544899     0.10600
S4219       S  0.66657982  0.71707158  0.79115461    -0.32800
S4220       S  0.57975162  0.58294758  0.75317029    -0.32800
H4221       H  0.59725422  0.56923923  0.75768109     0.28600
H4222       H  0.64312409  0.72115741  0.79951258     0.32200
H4223       H  0.67500914  0.68375901  0.75781152     0.19200
H4224       H  0.57496534  0.61251747  0.79049806     0.19200
C4225       C  0.71599688  0.50599676  0.53399645    -0.06600
C4226       C  0.70880448  0.52929413  0.53224438    -0.17800
C4227       C  0.69581890  0.53667589  0.54954656     0.10600
C4228       C  0.69022701  0.52070865  0.56935733    -0.06600
C4229       C  0.69495286  0.49557120  0.57027324    -0.17800
C4230       C  0.70731738  0.48782101  0.55278664     0.10600
S4231       S  0.68722241  0.56680472  0.54521380    -0.32800
S4232       S  0.71180461  0.95479142  0.55565511    -0.32800
H4233       H  0.71148014  0.94858847  0.53344240     0.28600
H4234       H  0.66083318  0.55352109  0.55806982     0.28600
H4235       H  0.71434397  0.54254984  0.51752292     0.19200
H4236       H  0.69014343  0.48249835  0.58502181     0.19200
C4237       C  0.73448769  0.71053559  0.53601817    -0.06600
C4238       C  0.72826302  0.72027918  0.55560613    -0.17800
C4239       C  0.72392462  0.70400398  0.57466878     0.10600
C4240       C  0.72317734  0.67562393  0.57403003    -0.06600
C4241       C  0.72915884  0.66572467  0.55426545    -0.17800
C4242       C  0.73536476  0.68310800  0.53541040     0.10600
S4243       S  0.72104723  0.72177266  0.59923513    -0.32800
S4244       S  0.74416670  0.66898643  0.51124206    -0.32800
H4245       H  0.76338477  0.69750779  0.50181368     0.28600
H4246       H  0.73827112  0.71257113  0.61176304     0.28600
H4247       H  0.72821250  0.74164989  0.55624495     0.19200
H4248       H  0.72863361  0.64406957  0.55335757     0.19200
C4249       C  0.99038447  0.60763144  0.99353992    -0.06600
C4250       C  0.98618339  0.59388070  0.01400120    -0.17800
C4251       C  0.98909589  0.56813541  0.01735060     0.10600
C4252       C  0.99583711  0.55479777  0.99970210    -0.06600
C4253       C  0.49993807  0.56811531  0.97921230    -0.17800
C4254       C  0.49761885  0.59429638  0.97593286     0.10600
S4255       S  0.98439204  0.55428082  0.04474605    -0.32800
S4256       S  0.50486306  0.60946260  0.94896215    -0.32800
H4257       H  0.53028141  0.63731750  0.95542918     0.28600
H4258       H  0.99772344  0.53598772  0.04230441     0.28600
H4259       H  0.98144747  0.60379832  0.02790043     0.19200
H4260       H  0.50500430  0.55793781  0.96556347     0.19200
C4261       C  0.51078240  0.89206385  0.00445332    -0.06600
C4262       C  0.50091020  0.89986475  0.98543183    -0.17800
C4263       C  0.99828423  0.92605024  0.98432179     0.10600
C4264       C  0.50408507  0.94428143  0.00303779    -0.06600
C4265       C  0.51512306  0.93718962  0.02172947    -0.17800
C4266       C  0.51929060  0.91193228  0.02246200     0.10600
S4267       S  0.98836521  0.93500260  0.95833423    -0.32800
S4268       S  0.53689059  0.90730186  0.04641870    -0.32800
H4269       H  0.55366153  0.89633787  0.03521100     0.28600
H4270       H  0.99943984  0.96620244  0.96202883     0.28600
H4271       H  0.99484982  0.88528196  0.97125289     0.19200
H4272       H  0.52092380  0.95175214  0.03586373     0.19200
C4273       C  0.53050120  0.84182518  0.90665369    -0.06600
C4274       C  0.53425519  0.87119219  0.90971182    -0.17800
C4275       C  0.54574197  0.89327153  0.89334927     0.10600
C4276       C  0.55473007  0.88643062  0.87348954    -0.06600
C4277       C  0.55040390  0.85704046  0.87020235    -0.17800
C4278       C  0.53813595  0.83469825  0.88628307     0.10600
S4279       S  0.54766181  0.92925869  0.89883747    -0.32800
S4280       S  0.53188392  0.79737570  0.87932344    -0.32800
H4281       H  0.50375048  0.78159657  0.89007633     0.28600
H4282       H  0.54540211  0.93659973  0.87726457     0.28600
H4283       H  0.52852219  0.87726554  0.92511932     0.19200
H4284       H  0.55631218  0.85130807  0.85472289     0.19200
C4285       C  0.57678120  0.69529570  0.86954231    -0.06600
C4286       C  0.54928843  0.67505986  0.87971142    -0.17800
C4287       C  0.53894016  0.68399294  0.89779219     0.10600
C4288       C  0.55711795  0.71351055  0.90692498    -0.06600
C4289       C  0.58440030  0.73396799  0.89653608    -0.17800
C4290       C  0.59415507  0.72536302  0.87783186     0.10600
S4291       S  0.00105242  0.65750285  0.90711914    -0.32800
S4292       S  0.62749250  0.75365955  0.86381412    -0.32800
H4293       H  0.63680720  0.77701804  0.87939080     0.28600
H4294       H  0.99269979  0.67984883  0.91060231     0.28600
H4295       H  0.53531511  0.65228919  0.87311806     0.19200
H4296       H  0.59782775  0.75690440  0.90291981     0.19200
C4297       C  0.60712182  0.61668363  0.00593590    -0.06600
C4298       C  0.59801004  0.60014095  0.98632391    -0.17800
C4299       C  0.57185665  0.57137134  0.98492198     0.10600
C4300       C  0.55430973  0.55841859  0.00366086    -0.06600
C4301       C  0.56275226  0.57512109  0.02305654    -0.17800
C4302       C  0.58853804  0.60412102  0.02437857     0.10600
S4303       S  0.56294403  0.55261334  0.95878326    -0.32800
S4304       S  0.59576809  0.62382840  0.04995507    -0.32800
H4305       H  0.60455563  0.65236407  0.04059704     0.28600
H4306       H  0.53308909  0.52922628  0.96288614     0.28600
H4307       H  0.61184462  0.60923280  0.97196788     0.19200
H4308       H  0.54910814  0.56554407  0.03737373     0.19200
C4309       C  0.89186055  0.88149464  0.99373973    -0.06600
C4310       C  0.90877570  0.88874533  0.01312446    -0.17800
C4311       C  0.93430578  0.91745662  0.01679289     0.10600
C4312       C  0.94419847  0.93979332  0.00032345    -0.06600
C4313       C  0.92767926  0.93255193  0.98084238    -0.17800
C4314       C  0.90189661  0.90394521  0.97729772     0.10600
S4315       S  0.95131582  0.92361431  0.04345212    -0.32800
S4316       S  0.88244721  0.89857721  0.95180912    -0.32800
H4317       H  0.88521506  0.87314330  0.94603276     0.28600
H4318       H  0.97328354  0.95450754  0.04166524     0.28600
H4319       H  0.90146139  0.87215976  0.02604503     0.19200
H4320       H  0.93525899  0.94935663  0.96805395     0.19200
C4321       C  0.78193433  0.83888519  0.90898413    -0.06600
C4322       C  0.81301611  0.85528685  0.90347259    -0.17800
C4323       C  0.82283676  0.87110067  0.88398636     0.10600
C4324       C  0.80105892  0.87042877  0.86937943    -0.06600
C4325       C  0.77000147  0.85338004  0.87443047    -0.17800
C4326       C  0.76023308  0.83840571  0.89423197     0.10600
S4327       S  0.86339358  0.89077742  0.87886666    -0.32800
S4328       S  0.72003947  0.82055598  0.89991088    -0.32800
H4329       H  0.72435030  0.83025924  0.92165564     0.28600
H4330       H  0.86458430  0.90901666  0.86146044     0.28600
H4331       H  0.82997233  0.85536197  0.91424811     0.19200
H4332       H  0.75328130  0.85290328  0.86320999     0.19200
C4333       C  0.63172226  0.68711083  0.86901616    -0.06600
C4334       C  0.61770438  0.66768215  0.88662302    -0.17800
C4335       C  0.63423668  0.66913026  0.90517484     0.10600
C4336       C  0.66573353  0.69095328  0.90645125    -0.06600
C4337       C  0.67994422  0.70930452  0.88833142    -0.17800
C4338       C  0.66349464  0.70779085  0.86978176     0.10600
S4339       S  0.61324883  0.64346953  0.92682135    -0.32800
S4340       S  0.68479096  0.73378959  0.84824933    -0.32800
H4341       H  0.66027900  0.73404016  0.83790575     0.28600
H4342       H  0.63284769  0.63129687  0.92799660     0.28600
H4343       H  0.59360849  0.65093302  0.88581197     0.19200
H4344       H  0.70407219  0.72601468  0.88889745     0.19200
C4345       C  0.88951608  0.50429420  0.99373395    -0.06600
C4346       C  0.89511207  0.49365579  0.01322758    -0.17800
C4347       C  0.92032905  0.98979511  0.01591492     0.10600
C4348       C  0.94076418  0.49640739  0.99856093    -0.06600
C4349       C  0.93447262  0.50570283  0.97870097    -0.17800
C4350       C  0.90959099  0.51035835  0.97623015     0.10600
S4351       S  0.92429671  0.97620304  0.04196481    -0.32800
S4352       S  0.90591187  0.52573829  0.95088323    -0.32800
H4353       H  0.89636303  0.54491559  0.96028207     0.28600
H4354       H  0.95570628  0.98774795  0.04114424     0.28600
H4355       H  0.87948916  0.98805297  0.02664821     0.19200
H4356       H  0.94993861  0.51068465  0.96526996     0.19200
C4357       C  0.61079183  0.99604018  0.00619892    -0.06600
C4358       C  0.60137054  0.50525012  0.02476393    -0.17800
C4359       C  0.57511821  0.50790764  0.02467083     0.10600
C4360       C  0.55831258  0.00258660  0.00525419    -0.06600
C4361       C  0.56770477  0.99357551  0.98671368    -0.17800
C4362       C  0.59275213  0.98908458  0.98711841     0.10600
S4363       S  0.56414338  0.51713162  0.05013004    -0.32800
S4364       S  0.59894595  0.97276961  0.96299337    -0.32800
H4365       H  0.60510155  0.95237671  0.97438086     0.28600
H4366       H  0.53330826  0.50629246  0.04529264     0.28600
H4367       H  0.61455733  0.51050013  0.03959203     0.19200
H4368       H  0.55427294  0.98832027  0.97200820     0.19200
C4369       C  0.66051596  0.97075662  0.90711917    -0.06600
C4370       C  0.65475317  0.94358268  0.89664733    -0.17800
C4371       C  0.63359508  0.93084047  0.87970695     0.10600
C4372       C  0.61685409  0.94494346  0.87332060    -0.06600
C4373       C  0.62304177  0.97244870  0.88330871    -0.17800
C4374       C  0.64476637  0.98563455  0.89989581     0.10600
S4375       S  0.62962755  0.89691651  0.86686828    -0.32800
S4376       S  0.65209602  0.02197985  0.91040925    -0.32800
H4377       H  0.68368222  0.53388677  0.91290702     0.28600
H4378       H  0.61928144  0.90061953  0.84661747     0.28600
H4379       H  0.66655886  0.93178853  0.90186579     0.19200
H4380       H  0.61118077  0.98406999  0.87779934     0.19200
C4381       C  0.80085410  0.92756522  0.87042586    -0.06600
C4382       C  0.76955773  0.91525283  0.87395098    -0.17800
C4383       C  0.75858711  0.91873216  0.89385124     0.10600
C4384       C  0.77947145  0.93682098  0.91027508    -0.06600
C4385       C  0.81086992  0.94910962  0.90657916    -0.17800
C4386       C  0.82175232  0.94471209  0.88696666     0.10600
S4387       S  0.71784434  0.89798576  0.89751823    -0.32800
S4388       S  0.86252946  0.96150717  0.88443855    -0.32800
H4389       H  0.86412810  0.96314957  0.86181395     0.28600
H4390       H  0.71947963  0.89003454  0.91909060     0.28600
H4391       H  0.75345861  0.90142102  0.86143712     0.19200
H4392       H  0.82735622  0.96318149  0.91881302     0.19200
C4393       C  0.92671363  0.80978107  0.12854556    -0.06600
C4394       C  0.93251294  0.82585839  0.10904951    -0.17800
C4395       C  0.93756721  0.81453512  0.08960977     0.10600
C4396       C  0.93785942  0.78655320  0.08961385    -0.06600
C4397       C  0.93143869  0.77025539  0.10918809    -0.17800
C4398       C  0.92582663  0.78146664  0.12849284     0.10600
S4399       S  0.44267321  0.83596578  0.06503913    -0.32800
S4400       S  0.91730958  0.75933543  0.15299285    -0.32800
H4401       H  0.91498212  0.73296732  0.14344717     0.28600
H4402       H  0.43769696  0.85872079  0.07395100     0.28600
H4403       H  0.93286085  0.84741678  0.10911295     0.19200
H4404       H  0.93169300  0.74900335  0.10955842     0.19200
C4405       C  0.87207058  0.81679535  0.12984883    -0.06600
C4406       C  0.87428951  0.84097550  0.11745679    -0.17800
C4407       C  0.85560678  0.83557698  0.09937964     0.10600
C4408       C  0.83441113  0.80515137  0.09332463    -0.06600
C4409       C  0.83176433  0.78110343  0.10630835    -0.17800
C4410       C  0.85001752  0.78657190  0.12456255     0.10600
S4411       S  0.85968813  0.86848178  0.08519284    -0.32800
S4412       S  0.84410709  0.75386131  0.14005927    -0.32800
H4413       H  0.85606423  0.76896868  0.15980956     0.28600
H4414       H  0.82817042  0.85613103  0.08186692     0.28600
H4415       H  0.89075931  0.86427341  0.12195821     0.19200
H4416       H  0.81574724  0.75760066  0.10200379     0.19200
C4417       C  0.82322447  0.54954272  0.32930135    -0.06600
C4418       C  0.82464887  0.56347764  0.30929344    -0.17800
C4419       C  0.82727766  0.59228042  0.30808805     0.10600
C4420       C  0.82921187  0.60812421  0.32741408    -0.06600
C4421       C  0.82710081  0.59419306  0.34732486    -0.17800
C4422       C  0.82341393  0.56503197  0.34854729     0.10600
S4423       S  0.82778179  0.60674673  0.28129589    -0.32800
S4424       S  0.81848405  0.54915346  0.37522903    -0.32800
H4425       H  0.84768680  0.55224463  0.37528950     0.28600
H4426       H  0.83347815  0.63593613  0.28695670     0.28600
H4427       H  0.82413890  0.55207734  0.29429562     0.19200
H4428       H  0.82796152  0.60608965  0.36214984     0.19200
C4429       C  0.83724375  0.72610430  0.33149625    -0.06600
C4430       C  0.84178135  0.73935455  0.35210669    -0.17800
C4431       C  0.84697892  0.76900067  0.35491130     0.10600
C4432       C  0.84489946  0.78510676  0.33693579    -0.06600
C4433       C  0.84050227  0.77168420  0.31622857    -0.17800
C4434       C  0.83706028  0.74272004  0.31325976     0.10600
S4435       S  0.85834287  0.78543823  0.38150939    -0.32800
S4436       S  0.83232314  0.72878238  0.28574803    -0.32800
H4437       H  0.82407169  0.69847778  0.29006140     0.28600
H4438       H  0.88016912  0.81447572  0.37394965     0.28600
H4439       H  0.84277957  0.72700677  0.36607646     0.19200
H4440       H  0.83903996  0.78351947  0.30209328     0.19200
C4441       C  0.81149103  0.97480929  0.43098317    -0.06600
C4442       C  0.78985507  0.95090257  0.44390739    -0.17800
C4443       C  0.77651060  0.95653555  0.46177616     0.10600
C4444       C  0.78396203  0.98673360  0.46666374    -0.06600
C4445       C  0.80738571  0.01083392  0.45508740    -0.17800
C4446       C  0.82152792  0.00525102  0.43756024     0.10600
S4447       S  0.74989986  0.92407815  0.47748396    -0.32800
S4448       S  0.85248360  0.53787406  0.42469862    -0.32800
H4449       H  0.86934387  0.52326748  0.42030892     0.28600
H4450       H  0.75375135  0.93997139  0.49700047     0.28600
H4451       H  0.78233082  0.92737575  0.43970262     0.19200
H4452       H  0.81423438  0.53415382  0.45945183     0.19200
C4453       C  0.78354345  0.82834467  0.42644022    -0.06600
C4454       C  0.76011264  0.82634512  0.43966857    -0.17800
C4455       C  0.75332409  0.81096352  0.45943224     0.10600
C4456       C  0.76959699  0.79631965  0.46583391    -0.06600
C4457       C  0.79377351  0.79939855  0.45313942    -0.17800
C4458       C  0.80123382  0.81557736  0.43379435     0.10600
S4459       S  0.72405015  0.81119831  0.47579014    -0.32800
S4460       S  0.83456980  0.82029443  0.42000844    -0.32800
H4461       H  0.84632124  0.85149357  0.41571023     0.28600
H4462       H  0.73474045  0.80666088  0.49566406     0.28600
H4463       H  0.74715710  0.83705351  0.43467337     0.19200
H4464       H  0.80657276  0.78852743  0.45816307     0.19200
C4465       C  0.86684444  0.86393364  0.24183321    -0.06600
C4466       C  0.85195598  0.83392876  0.23384833    -0.17800
C4467       C  0.86353453  0.82574241  0.21616776     0.10600
C4468       C  0.89024165  0.84816185  0.20582701    -0.06600
C4469       C  0.90527206  0.87807631  0.21384832    -0.17800
C4470       C  0.89439212  0.88601206  0.23202929     0.10600
S4471       S  0.84347756  0.78622982  0.20778933    -0.32800
S4472       S  0.91788695  0.92411014  0.24264368    -0.32800
H4473       H  0.91432410  0.91498963  0.26443666     0.28600
H4474       H  0.86939491  0.78539934  0.20067345     0.28600
H4475       H  0.83133600  0.81667082  0.24156311     0.19200
H4476       H  0.92597173  0.89519716  0.20613147     0.19200
C4477       C  0.71732090  0.55733520  0.33816454    -0.06600
C4478       C  0.72576535  0.57211556  0.31795227    -0.17800
C4479       C  0.75368835  0.59889285  0.31484841     0.10600
C4480       C  0.77428611  0.61167335  0.33239044    -0.06600
C4481       C  0.76570164  0.59768728  0.35269682    -0.17800
C4482       C  0.73756764  0.57119058  0.35591691     0.10600
S4483       S  0.76122156  0.61449109  0.28782612    -0.32800
S4484       S  0.72954952  0.55657236  0.38308771    -0.32800
H4485       H  0.70079195  0.55450305  0.38350317     0.28600
H4486       H  0.78947798  0.64067961  0.29153834     0.28600
H4487       H  0.71078023  0.56237116  0.30407485     0.19200
H4488       H  0.78114134  0.60765756  0.36630531     0.19200
C4489       C  0.89238612  0.72242317  0.32508773    -0.06600
C4490       C  0.90476787  0.73979862  0.34392642    -0.17800
C4491       C  0.93317603  0.76638167  0.34392933     0.10600
C4492       C  0.95163537  0.77450612  0.32520575    -0.06600
C4493       C  0.93933532  0.75706797  0.30627685    -0.17800
C4494       C  0.90977316  0.73169184  0.30580484     0.10600
S4495       S  0.94269259  0.79033162  0.36763876    -0.32800
S4496       S  0.89601528  0.71330172  0.27982940    -0.32800
H4497       H  0.86638915  0.69159239  0.28586356     0.28600
H4498       H  0.95345025  0.81758629  0.35590550     0.28600
H4499       H  0.89178145  0.73301126  0.35876242     0.19200
H4500       H  0.95265646  0.76358945  0.29155250     0.19200
C4501       C  0.53207866  0.82214251  0.42368343    -0.06600
C4502       C  0.54919293  0.83425859  0.44278066    -0.17800
C4503       C  0.54290755  0.81665638  0.46149133     0.10600
C4504       C  0.51785512  0.78653749  0.46172596    -0.06600
C4505       C  0.50045327  0.77453976  0.44283645    -0.17800
C4506       C  0.50798407  0.79136392  0.42370206     0.10600
S4507       S  0.56843836  0.83366207  0.48422883    -0.32800
S4508       S  0.48757183  0.77099030  0.39971890    -0.32800
H4509       H  0.51390649  0.78190205  0.38693793     0.28600
H4510       H  0.56590277  0.80629865  0.49180038     0.28600
H4511       H  0.56825135  0.85742528  0.44301059     0.19200
H4512       H  0.48121783  0.75151792  0.44280202     0.19200
C4513       C  0.72008598  0.97260149  0.45889880    -0.06600
C4514       C  0.69673314  0.94199310  0.45848173    -0.17800
C4515       C  0.67977327  0.92840509  0.43963492     0.10600
C4516       C  0.68531095  0.94615135  0.42062448    -0.06600
C4517       C  0.70985421  0.97647533  0.42094441    -0.17800
C4518       C  0.72683670  0.98992607  0.43977155     0.10600
S4519       S  0.65122814  0.88860984  0.44143742    -0.32800
S4520       S  0.75525888  0.52989301  0.43848780    -0.32800
H4521       H  0.75363149  0.53691340  0.46027681     0.28600
H4522       H  0.66022845  0.88074674  0.42206306     0.28600
H4523       H  0.69162475  0.92852212  0.47307412     0.19200
H4524       H  0.71491221  0.99062916  0.40672951     0.19200
C4525       C  0.95156404  0.85342142  0.20457742    -0.06600
C4526       C  0.94135233  0.83968546  0.22486421    -0.17800
C4527       C  0.95873666  0.85227451  0.24368919     0.10600
C4528       C  0.98837454  0.87824875  0.24231347    -0.06600
C4529       C  0.99877388  0.89167479  0.22191311    -0.17800
C4530       C  0.98060801  0.87999475  0.20325831     0.10600
S4531       S  0.94091059  0.83479827  0.26896580    -0.32800
S4532       S  0.99566746  0.90044158  0.17834996    -0.32800
H4533       H  0.96770689  0.89628330  0.17058717     0.28600
H4534       H  0.95335538  0.86255485  0.28048170     0.28600
H4535       H  0.91897968  0.81955830  0.22618965     0.19200
H4536       H  0.52141615  0.91135069  0.22038009     0.19200
C4537       C  0.94269105  0.61805561  0.12773822    -0.06600
C4538       C  0.94381204  0.60664897  0.10727918    -0.17800
C4539       C  0.95266960  0.62522675  0.08894062     0.10600
C4540       C  0.96308205  0.65688065  0.09101191    -0.06600
C4541       C  0.96223058  0.66841178  0.11154723    -0.17800
C4542       C  0.95176788  0.64942014  0.12976483     0.10600
S4543       S  0.94743533  0.60627830  0.06326311    -0.32800
S4544       S  0.94990976  0.66671745  0.15489955    -0.32800
H4545       H  0.92570878  0.64034166  0.16398490     0.28600
H4546       H  0.93518790  0.62243820  0.05278898     0.28600
H4547       H  0.93698760  0.58275615  0.10543378     0.19200
H4548       H  0.96931347  0.69237276  0.11338223     0.19200
C4549       C  0.88246267  0.55836391  0.12849941    -0.06600
C4550       C  0.87803572  0.53203622  0.11758754    -0.17800
C4551       C  0.85823219  0.52007212  0.09976760     0.10600
C4552       C  0.84251178  0.53490913  0.09231943    -0.06600
C4553       C  0.84660846  0.56094449  0.10363865    -0.17800
C4554       C  0.86596811  0.57251484  0.12166242     0.10600
S4555       S  0.85366632  0.98552885  0.08771585    -0.32800
S4556       S  0.86837991  0.60521527  0.13526131    -0.32800
H4557       H  0.87288496  0.59703249  0.15608357     0.28600
H4558       H  0.82207781  0.97239297  0.08428635     0.28600
H4559       H  0.89017103  0.52068898  0.12304785     0.19200
H4560       H  0.83493076  0.57277381  0.09825854     0.19200
C4561       C  0.89026419  0.50879258  0.24339314    -0.06600
C4562       C  0.88935264  0.49425405  0.22372952    -0.17800
C4563       C  0.89651155  0.50984974  0.20407634     0.10600
C4564       C  0.90436566  0.54086822  0.20382641    -0.06600
C4565       C  0.90427131  0.55513533  0.22338323    -0.17800
C4566       C  0.89835478  0.53985542  0.24314388     0.10600
S4567       S  0.89522358  0.48855570  0.18016834    -0.32800
S4568       S  0.90323494  0.56177736  0.26740353    -0.32800
H4569       H  0.91551721  0.54712203  0.27974867     0.28600
H4570       H  0.91746397  0.51312825  0.16823178     0.28600
H4571       H  0.88270837  0.97028447  0.22358548     0.19200
H4572       H  0.91002700  0.57884118  0.22334071     0.19200
C4573       C  0.69914949  0.62856150  0.13231175    -0.06600
C4574       C  0.72993025  0.64417656  0.12632992    -0.17800
C4575       C  0.73907787  0.65825240  0.10620536     0.10600
C4576       C  0.71721525  0.65860881  0.09208288    -0.06600
C4577       C  0.68647465  0.64381591  0.09849510    -0.17800
C4578       C  0.67714424  0.62866685  0.11829636     0.10600
S4579       S  0.77859548  0.67360391  0.09918986    -0.32800
S4580       S  0.63696873  0.61064082  0.12448861    -0.32800
H4581       H  0.63576272  0.59144751  0.14122206     0.28600
H4582       H  0.77246729  0.66394187  0.07745465     0.28600
H4583       H  0.74682432  0.64398492  0.13702804     0.19200
H4584       H  0.66948162  0.64443146  0.08814386     0.19200
C4585       C  0.70129183  0.57245161  0.13122656    -0.06600
C4586       C  0.73232521  0.58273657  0.12828402    -0.17800
C4587       C  0.74349623  0.57917943  0.10838851     0.10600
C4588       C  0.72276248  0.56398488  0.09104469    -0.06600
C4589       C  0.69157756  0.55363832  0.09430652    -0.17800
C4590       C  0.68066629  0.55738400  0.11411723     0.10600
S4591       S  0.78425453  0.59509044  0.10565659    -0.32800
S4592       S  0.64009486  0.54211784  0.11641042    -0.32800
H4593       H  0.63827504  0.53839131  0.13895356     0.28600
H4594       H  0.79286656  0.60914471  0.12613278     0.28600
H4595       H  0.74793726  0.59462219  0.14150468     0.19200
H4596       H  0.67516169  0.54158279  0.08152318     0.19200
C4597       C  0.66505721  0.54973776  0.20680200    -0.06600
C4598       C  0.63959300  0.52054536  0.20371587    -0.17800
C4599       C  0.62974839  0.99833383  0.21989485     0.10600
C4600       C  0.64490093  0.00568058  0.24017580    -0.06600
C4601       C  0.67086953  0.53478544  0.24297648    -0.17800
C4602       C  0.68143814  0.55646129  0.22645005     0.10600
S4603       S  0.59862771  0.96089235  0.21319049    -0.32800
S4604       S  0.71643146  0.59173967  0.23126644    -0.32800
H4605       H  0.72680023  0.59525348  0.20981961     0.28600
H4606       H  0.61108860  0.94525213  0.22412502     0.28600
H4607       H  0.62754686  0.51485976  0.18835622     0.19200
H4608       H  0.68310876  0.54093434  0.25826079     0.19200
C4609       C  0.77822405  0.67016026  0.33621824    -0.06600
C4610       C  0.76319945  0.67327646  0.31825328    -0.17800
C4611       C  0.73420991  0.66985666  0.31995286     0.10600
C4612       C  0.71876840  0.66173283  0.34006200    -0.06600
C4613       C  0.73446091  0.66006592  0.35835230    -0.17800
C4614       C  0.76408278  0.66455524  0.35672756     0.10600
S4615       S  0.71917914  0.67771848  0.29588727    -0.32800
S4616       S  0.78217774  0.66270487  0.38147013    -0.32800
H4617       H  0.81134132  0.67215249  0.37328310     0.28600
H4618       H  0.70887705  0.69531534  0.30678717     0.28600
H4619       H  0.77395870  0.67804550  0.30256695     0.19200
H4620       H  0.72352532  0.65502742  0.37403016     0.19200
C4621       C  0.88902498  0.66405138  0.32772196    -0.06600
C4622       C  0.90067254  0.65978535  0.30838475    -0.17800
C4623       C  0.92997345  0.66365582  0.30724693     0.10600
C4624       C  0.94820545  0.67059833  0.32626259    -0.06600
C4625       C  0.93606485  0.67437812  0.34578294    -0.17800
C4626       C  0.90692303  0.67114908  0.34673360     0.10600
S4627       S  0.94242059  0.66028902  0.28068591    -0.32800
S4628       S  0.89417675  0.67649782  0.37280746    -0.32800
H4629       H  0.86287025  0.66204221  0.36816319     0.28600
H4630       H  0.96968001  0.68853100  0.28222535     0.28600
H4631       H  0.88742362  0.65487929  0.29369375     0.19200
H4632       H  0.94912138  0.67944128  0.36064419     0.19200
C4633       C  0.52999467  0.70032060  0.42850654    -0.06600
C4634       C  0.49916791  0.68880102  0.43383913    -0.17800
C4635       C  0.49060786  0.70056184  0.45135662     0.10600
C4636       C  0.51327348  0.72514327  0.46360357    -0.06600
C4637       C  0.54392934  0.73642280  0.45863351    -0.17800
C4638       C  0.55259390  0.72402935  0.44171490     0.10600
S4639       S  0.95039197  0.68319629  0.45706086    -0.32800
S4640       S  0.59298415  0.74013565  0.43802388    -0.32800
H4641       H  0.59130245  0.71194165  0.44191262     0.28600
H4642       H  0.95133136  0.70796314  0.46808852     0.28600
H4643       H  0.48149286  0.67058015  0.42420093     0.19200
H4644       H  0.56136691  0.75479848  0.46834613     0.19200
C4645       C  0.67837006  0.72718459  0.42441665    -0.06600
C4646       C  0.66557216  0.72666666  0.44468456    -0.17800
C4647       C  0.68228998  0.73224287  0.46388883     0.10600
C4648       C  0.71248184  0.73768673  0.46300827    -0.06600
C4649       C  0.72501948  0.73751112  0.44280071    -0.17800
C4650       C  0.70892855  0.73370244  0.42357822     0.10600
S4651       S  0.66341039  0.73171108  0.48877268    -0.32800
S4652       S  0.72922410  0.73877327  0.39859961    -0.32800
H4653       H  0.71426173  0.75175547  0.38741362     0.28600
H4654       H  0.68956864  0.75205927  0.50054461     0.28600
H4655       H  0.64205767  0.72113073  0.44569035     0.19200
H4656       H  0.74804714  0.74140721  0.44193961     0.19200
C4657       C  0.96557053  0.59469745  0.20155272    -0.06600
C4658       C  0.97178609  0.62093339  0.21327964    -0.17800
C4659       C  0.98691950  0.62752797  0.23322965     0.10600
C4660       C  0.99426895  0.60643355  0.24253208    -0.06600
C4661       C  0.98959130  0.58108778  0.23021456    -0.17800
C4662       C  0.97629721  0.57560952  0.20959287     0.10600
S4663       S  0.49835457  0.66434814  0.24503893    -0.32800
S4664       S  0.97452420  0.54454790  0.19409763    -0.32800
H4665       H  0.97357807  0.55633255  0.17371476     0.28600
H4666       H  0.52723974  0.66994323  0.25187656     0.28600
H4667       H  0.96454981  0.63624953  0.20691638     0.19200
H4668       H  0.99687994  0.56578122  0.23650770     0.19200
C4669       C  0.66316334  0.60876652  0.20856559    -0.06600
C4670       C  0.63324168  0.58970969  0.21571115    -0.17800
C4671       C  0.62143645  0.59782408  0.23334194     0.10600
C4672       C  0.63960391  0.62620900  0.24397365    -0.06600
C4673       C  0.66940852  0.64546577  0.23662317    -0.17800
C4674       C  0.68137308  0.63720092  0.21913984     0.10600
S4675       S  0.58359899  0.57012632  0.24203511    -0.32800
S4676       S  0.72011760  0.66410339  0.21149526    -0.32800
H4677       H  0.72691093  0.64323275  0.20160707     0.28600
H4678       H  0.59116207  0.57341138  0.26418632     0.28600
H4679       H  0.61894175  0.56812163  0.20753847     0.19200
H4680       H  0.68365235  0.66715103  0.24469369     0.19200
loop_ 
_geom_bond_atom_site_label_1 
_geom_bond_atom_site_label_2 
_geom_bond_distance 
_geom_bond_site_symmetry_2 
_ccdc_geom_bond_type 
O1           Mg3   2.167       .  S
O1           Mg9   2.159       .  S
O1           C36   1.235       .  S
C2           O15   1.235       .  S
C2           O39   1.270       .  A
C2           H41   1.080       .  S
Mg3          O32   2.152       .  S
Mg3          O47   2.326   1_455  S
Mg3          O43   2.300       .  S
Mg3          O14   2.311       .  S
O4          Mg46   2.152       .  S
O4          Mg29   2.142       .  S
O4           C25   1.234       .  S
O5           C36   1.271       .  A
O5          Mg29   2.310       .  S
C6            O8   1.270       .  A
C6           O20   1.270       .  A
C6         C1135   1.481       .  S
O7           C35   1.269       .  A
O7           Mg9   2.299       .  S
O8          Mg40   2.263       .  S
Mg9          O15   2.164       .  S
Mg9          O11   2.308       .  S
Mg9        O2363   2.267   1_455  S
C10          O48   1.271       .  A
C10          O16   1.271       .  A
C10        C1102   1.488       .  S
O11          C18   1.275       .  A
H12          C25   1.083       .  S
C13          O27   1.235       .  S
C13          O28   1.269       .  A
C13          H38   1.081       .  S
O14          C37   1.271       .  A
O15         Mg29   2.159       .  S
O16         Mg46   2.295       .  S
C17          O30   1.269       .  A
C17          O22   1.273       .  A
C17        C1162   1.485       .  S
C18          O45   1.268       .  A
C18        C3490   1.479   1_455  S
Mg19         O26   2.163       .  S
Mg19         O27   2.144       .  S
Mg19         O20   2.278       .  S
Mg19         O21   2.310       .  S
Mg19         O48   2.280       .  S
O21          C25   1.270       .  A
O22         Mg29   2.309       .  S
O23          C42   1.271       .  A
O23       Mg2349   2.267       .  S
O24          C44   1.270       .  A
O24         Mg40   2.285       .  S
O26         Mg40   2.164       .  S
O26          C37   1.235       .  S
O27         Mg46   2.146       .  S
O28         Mg40   2.301       .  S
Mg29         O45   2.244       .  S
O30         Mg46   2.259       .  S
H31          C36   1.081   1_655  S
O32         Mg40   2.151       .  S
O32          C35   1.234       .  S
H33          C35   1.082       .  S
H34          C37   1.081       .  S
O39         Mg46   2.303       .  S
C42        O2387   1.279       .  A
C42        C1114   1.502       .  S
O43          C44   1.276       .  A
C44        C1123   1.496       .  S
O47        C2382   1.279       .  A
C49        C1087   1.484       .  S
C49          C50   1.423       .  A
C49          C54   1.404       .  A
C50        C1159   1.488       .  S
C50          C51   1.406       .  A
C51          H56   1.084       .  S
C51          C52   1.400       .  A
C52        C1063   1.477       .  S
C52          C53   1.408       .  A
C53        C1075   1.479       .  S
C53          C54   1.396       .  A
C54          H55   1.084       .  S
C57        C1054   1.487       .  S
C57          C58   1.414       .  A
C57          C62   1.402       .  A
C58        C1147   1.487       .  S
C58          C59   1.403       .  A
C59          H64   1.085       .  S
C59          C60   1.408       .  A
C60        C1027   1.493       .  S
C60          C61   1.422       .  A
C61        C1039   1.487       .  S
C61          C62   1.404       .  A
C62          H63   1.085       .  S
O65         Mg67   2.140       .  S
O65         Mg73   2.147       .  S
O65         C100   1.234       .  S
C66          O79   1.235       .  S
C66         O103   1.269       .  A
C66         H105   1.082       .  S
Mg67         O96   2.164       .  S
Mg67        O107   2.242       .  S
Mg67         O78   2.298       .  S
Mg67       O1281   2.294       .  S
O68        Mg110   2.158       .  S
O68         Mg93   2.152       .  S
O68          C89   1.235       .  S
O69         C100   1.268       .  A
O69         Mg93   2.296       .  S
C70          O72   1.276       .  A
C70          O84   1.272       .  A
C70        C3358   1.493   1_455  S
O71          C99   1.272       .  A
O71         Mg73   2.309       .  S
O72        Mg104   2.300       .  S
Mg73         O79   2.149       .  S
Mg73         O75   2.308       .  S
Mg73       O1257   2.278       .  S
C74         O112   1.270       .  A
C74        O2420   1.273       .  A
C74         C982   1.486       .  S
O75          C82   1.277       .  A
H76          C89   1.081       .  S
C77          O91   1.233       .  S
C77          O92   1.268       .  A
C77         H102   1.082       .  S
O78         C101   1.269       .  A
O79         Mg93   2.160       .  S
O80        C2414   1.273       .  A
O80        Mg110   2.300   1_655  S
C81          O94   1.271       .  A
C81          O86   1.275       .  A
C81         C991   1.487       .  S
C82         O109   1.272       .  A
C82        C1006   1.499       .  S
Mg83         O90   2.153       .  S
Mg83         O91   2.152       .  S
Mg83         O84   2.282       .  S
Mg83         O85   2.304       .  S
Mg83       O2452   2.264   1_455  S
O85          C89   1.270       .  A
O86         Mg93   2.293       .  S
O87         C106   1.271       .  A
O87       Mg1243   2.278   1_545  S
O88         C108   1.276       .  A
O88        Mg104   2.313       .  S
O90        Mg104   2.173       .  S
O90         C101   1.235       .  S
O91        Mg110   2.156       .  S
O92        Mg104   2.303       .  S
Mg93        O109   2.273       .  S
O94        Mg110   2.265       .  S
H95         C100   1.081       .  S
O96        Mg104   2.165       .  S
O96          C99   1.236       .  S
H97          C99   1.081       .  S
H98         C101   1.082       .  S
O103       Mg110   2.298       .  S
C106        O111   1.274       .  A
C106        C967   1.499       .  S
O107        C108   1.270       .  A
C108       C1090   1.488       .  S
O111      Mg1237   2.294   1_545  S
O112      Mg2423   2.264       .  S
O113       Mg115   2.146       .  S
O113       Mg121   2.156       .  S
O113        C148   1.236       .  S
C114        O127   1.236       .  S
C114        O151   1.272       .  A
C114        H153   1.081       .  S
Mg115       O144   2.139       .  S
Mg115       O159   2.281       .  S
Mg115       O155   2.256       .  S
Mg115       O126   2.304       .  S
O116       Mg158   2.145       .  S
O116       Mg141   2.137       .  S
O116        C137   1.233       .  S
O117        C148   1.271       .  A
O117       Mg141   2.308       .  S
C118        O120   1.268       .  A
C118        O132   1.274       .  A
C118       C2221   1.480       .  S
O119        C147   1.268       .  A
O119       Mg121   2.300       .  S
O120       Mg152   2.233       .  S
Mg121       O127   2.159       .  S
Mg121       O135   2.278       .  S
Mg121       O123   2.296       .  S
C122        O160   1.272       .  A
C122       O1298   1.273       .  A
C122        C907   1.489       .  S
O123        C130   1.273       .  A
H124        C137   1.082       .  S
C125        O139   1.235       .  S
C125        O140   1.269       .  A
C125        H150   1.081       .  S
O126        C149   1.270       .  A
O127       Mg141   2.146       .  S
O128       C1292   1.273       .  A
O128       Mg158   2.296       .  S
C129        O142   1.272       .  A
C129        O134   1.273       .  A
C129        C931   1.492       .  S
C130        O157   1.267       .  A
C130        C943   1.476       .  S
Mg131       O138   2.139       .  S
Mg131       O139   2.167       .  S
Mg131       O132   2.305       .  S
Mg131       O133   2.297       .  S
Mg131      O1330   2.247       .  S
O133        C137   1.268       .  A
O134       Mg141   2.292       .  S
O135        C154   1.272       .  A
O136        C156   1.269       .  A
O136       Mg152   2.280       .  S
O138       Mg152   2.152       .  S
O138        C149   1.235       .  S
O139       Mg158   2.146       .  S
O140       Mg152   2.293       .  S
Mg141       O157   2.237       .  S
O142       Mg158   2.285       .  S
H143        C148   1.082       .  S
O144       Mg152   2.134       .  S
O144        C147   1.233       .  S
H145        C147   1.082       .  S
H146        C149   1.081       .  S
O151       Mg158   2.311       .  S
C154        O159   1.272       .  A
C154        C922   1.490       .  S
O155        C156   1.269       .  A
C156        C955   1.475       .  S
O160      Mg1301   2.247   1_545  S
C161        C958   1.479       .  S
C161        C162   1.417       .  A
C161        C166   1.393       .  A
C162       C1015   1.495       .  S
C162        C163   1.416       .  A
C163        H168   1.083       .  S
C163        C164   1.414       .  A
C164        C883   1.498       .  S
C164        C165   1.413       .  A
C165        C895   1.469       .  S
C165        C166   1.392       .  A
C166        H167   1.085       .  S
O169       Mg171   2.142   1_554  S
O169      Mg1347   2.168       .  S
O169        C204   1.234       .  S
C170        O183   1.234       .  S
C170        O207   1.269       .  A
C170        H209   1.081       .  S
Mg171      O1370   2.160   1_545  S
Mg171       O182   2.301       .  S
Mg171      O1385   2.273   1_545  S
Mg171      O1381   2.265   1_545  S
O172       Mg197   2.143       .  S
O172      Mg1384   2.155   1_545  S
O172        C193   1.236       .  S
O173        C204   1.269       .  A
O173       Mg197   2.298       .  S
C174        O176   1.268       .  A
C174        O188   1.274       .  A
C174        C874   1.484       .  S
O175        C203   1.268   1_554  A
O175       Mg177   2.293       .  S
O176       Mg208   2.244       .  S
Mg177       O183   2.157       .  S
Mg177      O1339   2.168       .  S
Mg177       O191   2.285       .  S
Mg177      O1349   2.304       .  S
C178        O216   1.271   1_545  A
C178        O184   1.272   1_556  A
C178        C835   1.482       .  S
O179        C186   1.276       .  A
O179      Mg1347   2.304       .  S
H180        C193   1.082       .  S
C181        O195   1.235       .  S
C181        O196   1.270       .  A
C181        H206   1.080   1_556  S
O182        C205   1.269       .  A
O183      Mg1367   2.157       .  S
O184      Mg1384   2.281   1_545  S
C185        O198   1.271       .  A
C185        O190   1.274       .  A
C185       C1042   1.491       .  S
C186        O213   1.267       .  A
C186       C1078   1.491       .  S
Mg187       O194   2.154       .  S
Mg187      O1365   2.144   1_545  S
Mg187       O189   2.308       .  S
Mg187       O216   2.273   1_545  S
Mg187      O1358   2.295   1_545  S
O188      Mg1357   2.295       .  S
O189        C193   1.271   1_556  A
O190       Mg197   2.300       .  S
O191        C210   1.275       .  A
O192        C212   1.274       .  A
O192       Mg208   2.298       .  S
O194      Mg1378   2.152   1_545  S
O194        C205   1.234       .  S
O195       Mg214   2.148   1_556  S
O195      Mg1357   2.144       .  S
O196       Mg208   2.307       .  S
Mg197      O1353   2.157       .  S
Mg197       O213   2.238       .  S
O198      Mg1384   2.272   1_545  S
H199        C204   1.081   1_556  S
O200       Mg208   2.137       .  S
O200      Mg1341   2.160       .  S
O200        C203   1.234       .  S
H201        C203   1.082       .  S
H202        C205   1.081       .  S
O207       Mg214   2.299       .  S
Mg208      O1364   2.152       .  S
C210        O215   1.270   1_554  A
C210        C847   1.492       .  S
O211        C212   1.271       .  A
O211      Mg1341   2.265       .  S
C212        C859   1.487       .  S
Mg214      O1342   2.155       .  S
Mg214      O1354   2.281       .  S
Mg214      O1368   2.272       .  S
O215      Mg1341   2.273       .  S
O217       Mg219   2.131   1_556  S
O217       Mg225   2.156       .  S
O217        C252   1.234       .  S
C218        O231   1.236       .  S
C218        O255   1.271       .  A
C218        H257   1.081       .  S
Mg219       O248   2.143       .  S
Mg219       O263   2.292       .  S
Mg219       O259   2.252       .  S
Mg219       O230   2.309       .  S
O220       Mg262   2.146       .  S
O220       Mg245   2.133       .  S
O220        C241   1.233       .  S
O221        C252   1.268       .  A
O221       Mg245   2.296       .  S
C222        O224   1.267       .  A
C222        O236   1.274       .  A
C222       C1066   1.482       .  S
O223        C251   1.268   1_556  A
O223       Mg225   2.301       .  S
O224       Mg256   2.239       .  S
Mg225       O231   2.139       .  S
Mg225       O239   2.254       .  S
Mg225       O227   2.292       .  S
C226        O264   1.271       .  A
C226        O232   1.274   1_554  A
C226        C787   1.484       .  S
O227        C234   1.273       .  A
H228        C241   1.081       .  S
C229        O243   1.235       .  S
C229        O244   1.269       .  A
C229        H254   1.082   1_554  S
O230        C253   1.271       .  A
O231       Mg245   2.150       .  S
O232       Mg262   2.288       .  S
C233        O246   1.268       .  A
C233        O238   1.270       .  A
C233        C826   1.483       .  S
C234        O261   1.266       .  A
C234        C811   1.483       .  S
Mg235       O242   2.142       .  S
Mg235       O243   2.156       .  S
Mg235       O236   2.298       .  S
Mg235       O237   2.295       .  S
Mg235       O264   2.256       .  S
O237        C241   1.267   1_554  A
O238       Mg245   2.264       .  S
O239        C258   1.269       .  A
O240        C260   1.270       .  A
O240       Mg256   2.271       .  S
O242       Mg256   2.144       .  S
O242        C253   1.235       .  S
O243       Mg262   2.135   1_554  S
O244       Mg256   2.297       .  S
Mg245       O261   2.237       .  S
O246       Mg262   2.257       .  S
H247        C252   1.082   1_554  S
O248       Mg256   2.144       .  S
O248        C251   1.233       .  S
H249        C251   1.081       .  S
H250        C253   1.081       .  S
O255       Mg262   2.302       .  S
C258        O263   1.275   1_556  A
C258        C799   1.490       .  S
O259        C260   1.268       .  A
C260        C898   1.479       .  S
O265       Mg267   2.170   1_556  S
O265      Mg2613   2.158   1_455  S
O265        C300   1.234       .  S
C266        O279   1.235       .  S
C266        O303   1.269       .  A
C266        H305   1.081       .  S
Mg267      O2636   2.164   1_455  S
Mg267       O278   2.294       .  S
Mg267      O2651   2.294   1_455  S
Mg267      O2647   2.274   1_455  S
O268       Mg293   2.158       .  S
O268      Mg2650   2.165   1_455  S
O268        C289   1.236       .  S
O269        C300   1.269       .  A
O269       Mg293   2.306       .  S
C270        O272   1.278       .  A
C270        O284   1.275       .  A
C270        C886   1.504       .  S
O271        C299   1.272   1_556  A
O271       Mg273   2.312       .  S
O272       Mg304   2.309       .  S
Mg273       O279   2.159       .  S
Mg273      O2605   2.158       .  S
Mg273       O287   2.285       .  S
Mg273      O2615   2.319       .  S
C274        O312   1.271       .  A
C274        O280   1.271   1_554  A
C274        C751   1.483       .  S
O275        C282   1.277       .  A
O275      Mg2613   2.319   1_455  S
H276        C289   1.082       .  S
C277        O291   1.234       .  S
C277        O292   1.268       .  A
C277        H302   1.081   1_554  S
O278        C301   1.268       .  A
O279      Mg2633   2.169       .  S
O280      Mg2650   2.276   1_455  S
C281        O294   1.270       .  A
C281        O286   1.277       .  A
C281        C763   1.494       .  S
C282        O309   1.275       .  A
C282        C778   1.492       .  S
Mg283       O290   2.144   1_455  S
Mg283      O2631   2.161   1_455  S
Mg283       O285   2.305       .  S
Mg283       O312   2.268       .  S
Mg283      O2624   2.306   1_455  S
O284      Mg2623   2.306       .  S
O285        C289   1.271   1_554  A
O286       Mg293   2.322       .  S
O287        C306   1.271       .  A
O288        C308   1.277       .  A
O288       Mg304   2.322       .  S
O290      Mg2644   2.166       .  S
O290        C301   1.234   1_655  S
O291       Mg310   2.158   1_554  S
O291      Mg2623   2.161       .  S
O292       Mg304   2.299       .  S
Mg293      O2619   2.169   1_455  S
Mg293       O309   2.289       .  S
O294      Mg2650   2.257   1_455  S
H295        C300   1.081   1_554  S
O296       Mg304   2.175       .  S
O296      Mg2607   2.164       .  S
O296        C299   1.236       .  S
H297        C299   1.081       .  S
H298        C301   1.081       .  S
O303       Mg310   2.298       .  S
Mg304      O2630   2.166       .  S
C306        O311   1.275   1_556  A
C306        C739   1.501       .  S
O307        C308   1.273       .  A
O307      Mg2607   2.274       .  S
C308       C1030   1.491       .  S
Mg310      O2608   2.165       .  S
Mg310      O2620   2.276       .  S
Mg310      O2634   2.257       .  S
O311      Mg2607   2.294       .  S
O313       Mg315   2.145       .  S
O313       Mg321   2.171       .  S
O313        C348   1.234       .  S
C314        O327   1.235       .  S
C314        O351   1.270       .  A
C314        H353   1.081       .  S
Mg315       O344   2.162       .  S
Mg315       O359   2.280   1_545  S
Mg315       O355   2.274       .  S
Mg315       O326   2.293       .  S
O316       Mg358   2.151       .  S
O316       Mg341   2.143       .  S
O316        C337   1.233       .  S
O317        C348   1.268       .  A
O317       Mg341   2.292       .  S
C318        O320   1.273       .  A
C318        O332   1.271       .  A
C318        C730   1.484       .  S
O319        C347   1.267       .  A
O319       Mg321   2.292       .  S
O320       Mg352   2.270       .  S
Mg321       O327   2.153       .  S
Mg321       O323   2.307       .  S
Mg321      O1505   2.275   1_545  S
C322        O360   1.274       .  A
C322        O328   1.271       .  A
C322        C667   1.490       .  S
O323        C330   1.275       .  A
H324        C337   1.082       .  S
C325        O339   1.234       .  S
C325        O340   1.269       .  A
C325        H350   1.082       .  S
O326        C349   1.269       .  A
O327       Mg341   2.158       .  S
O328       Mg358   2.289       .  S
C329        O342   1.269       .  A
C329        O334   1.270       .  A
C329        C703   1.474       .  S
C330        O357   1.268       .  A
C330       C1861   1.483   1_545  S
Mg331       O338   2.150       .  S
Mg331       O339   2.161       .  S
Mg331       O332   2.270       .  S
Mg331       O333   2.300       .  S
Mg331       O360   2.283       .  S
O333        C337   1.268       .  A
O334       Mg341   2.283       .  S
O335        C354   1.274       .  A
O335      Mg1491   2.275       .  S
O336        C356   1.275       .  A
O336       Mg352   2.300       .  S
O338       Mg352   2.174       .  S
O338        C349   1.235       .  S
O339       Mg358   2.143       .  S
O340       Mg352   2.298       .  S
Mg341       O357   2.239       .  S
O342       Mg358   2.255       .  S
H343        C348   1.082   1_565  S
O344       Mg352   2.142       .  S
O344        C347   1.234       .  S
H345        C347   1.082       .  S
H346        C349   1.081       .  S
O351       Mg358   2.305       .  S
C354       O1529   1.273       .  A
C354        C682   1.486       .  S
O355        C356   1.274       .  A
C356        C718   1.490       .  S
O359       C1524   1.273       .  A
C361        C823   1.481       .  S
C361        C362   1.418       .  A
C361        C366   1.400       .  A
C362        C775   1.498       .  S
C362        C363   1.411       .  A
C363        H368   1.084       .  S
C363        C364   1.410       .  A
C364        C655   1.490       .  S
C364        C365   1.416       .  A
C365        C706   1.485       .  S
C365        C366   1.397       .  A
C366        H367   1.085       .  S
C369        C766   1.486       .  S
C369        C370   1.419       .  A
C369        C374   1.405       .  A
C370        C862   1.480       .  S
C370        C371   1.402       .  A
C371        H376   1.085       .  S
C371        C372   1.399       .  A
C372        C694   1.483       .  S
C372        C373   1.412       .  A
C373        C643   1.482       .  S
C373        C374   1.402       .  A
C374        H375   1.085       .  S
O377       Mg379   2.158       .  S
O377       Mg385   2.151       .  S
O377        C412   1.234       .  S
C378        O391   1.235       .  S
C378        O415   1.270       .  A
C378        H417   1.082       .  S
Mg379       O408   2.160       .  S
Mg379       O423   2.296       .  S
Mg379       O419   2.265       .  S
Mg379       O390   2.300       .  S
O380       Mg422   2.161       .  S
O380       Mg405   2.163       .  S
O380        C401   1.236       .  S
O381        C412   1.269       .  A
O381       Mg405   2.300       .  S
C382        O384   1.273       .  A
C382        O396   1.274       .  A
C382        C619   1.486       .  S
O383        C411   1.271       .  A
O383       Mg385   2.312       .  S
O384       Mg416   2.282       .  S
Mg385       O391   2.164       .  S
Mg385       O387   2.303       .  S
Mg385      O2739   2.284       .  S
C386        O424   1.271       .  A
C386        O392   1.275       .  A
C386        C583   1.495       .  S
O387        C394   1.276       .  A
H388        C401   1.081       .  S
C389        O403   1.235       .  S
C389        O404   1.270       .  A
C389        H414   1.081       .  S
O390        C413   1.270       .  A
O391       Mg405   2.176       .  S
O392      Mg1592   2.320       .  S
C393        O406   1.271       .  A
C393        O398   1.277       .  A
C393        C610   1.486   1_545  S
C394        O421   1.273       .  A
C394       C2998   1.500       .  S
Mg395       O402   2.152       .  S
Mg395       O403   2.147       .  S
Mg395       O396   2.304       .  S
Mg395       O397   2.305       .  S
Mg395      O1594   2.261   1_545  S
O397        C401   1.271       .  A
O398       Mg405   2.319       .  S
O399        C418   1.271       .  A
O399      Mg2725   2.284   1_455  S
O400        C420   1.274       .  A
O400       Mg416   2.305       .  S
O402       Mg416   2.154       .  S
O402        C413   1.235       .  S
O403       Mg422   2.151       .  S
O404       Mg416   2.306       .  S
Mg405       O421   2.286       .  S
O406       Mg422   2.252       .  S
H407        C412   1.081       .  S
O408       Mg416   2.158       .  S
O408        C411   1.235       .  S
H409        C411   1.081       .  S
H410        C413   1.082       .  S
O415       Mg422   2.303       .  S
C418       O2763   1.274   1_455  A
C418        C598   1.499       .  S
O419        C420   1.271       .  A
C420        C631   1.486       .  S
Mg422      O1562   2.320   1_545  S
O423       C2758   1.274       .  A
O424      Mg1565   2.261       .  S
O425       Mg427   2.144       .  S
O425       Mg433   2.158       .  S
O425        C460   1.235       .  S
C426        O439   1.234       .  S
C426        O463   1.269       .  A
C426        H465   1.081       .  S
Mg427       O456   2.168       .  S
Mg427       O471   2.289       .  S
Mg427       O467   2.264       .  S
Mg427       O438   2.297       .  S
O428       Mg470   2.159       .  S
O428       Mg453   2.147       .  S
O428        C449   1.234       .  S
O429        C460   1.270       .  A
O429       Mg453   2.307       .  S
C430        O432   1.271       .  A
C430        O444   1.274       .  A
C430       C2986   1.473       .  S
O431        C459   1.269       .  A
O431       Mg433   2.295       .  S
O432       Mg464   2.258       .  S
Mg433       O439   2.145       .  S
Mg433       O447   2.252       .  S
Mg433       O435   2.285       .  S
C434        O472   1.273       .  A
C434       O2780   1.272       .  A
C434        C523   1.486       .  S
O435        C442   1.272       .  A
H436        C449   1.082       .  S
C437        O451   1.234       .  S
C437        O452   1.269       .  A
C437        H462   1.081       .  S
O438        C461   1.268       .  A
O439       Mg453   2.146       .  S
O440       C2774   1.272       .  A
O440       Mg470   2.277       .  S
C441        O454   1.270       .  A
C441        O446   1.273       .  A
C441        C574   1.489       .  S
C442        O469   1.269       .  A
C442        C562   1.480       .  S
Mg443       O450   2.158       .  S
Mg443       O451   2.162       .  S
Mg443       O444   2.284       .  S
Mg443       O445   2.301       .  S
Mg443      O2812   2.290       .  S
O445        C449   1.269       .  A
O446       Mg453   2.291       .  S
O447        C466   1.270       .  A
O448        C468   1.274       .  A
O448       Mg464   2.297       .  S
O450       Mg464   2.170       .  S
O450        C461   1.233       .  S
O451       Mg470   2.146       .  S
O452       Mg464   2.298       .  S
Mg453       O469   2.261       .  S
O454       Mg470   2.262       .  S
H455        C460   1.081       .  S
O456       Mg464   2.147       .  S
O456        C459   1.235       .  S
H457        C459   1.082       .  S
H458        C461   1.081       .  S
O463       Mg470   2.299       .  S
C466        O471   1.272       .  A
C466        C535   1.489       .  S
O467        C468   1.272       .  A
C468        C547   1.487       .  S
O472      Mg2783   2.290   1_455  S
C473        C814   1.475       .  S
C473        C474   1.406       .  A
C473        C478   1.396       .  A
C474        C871   1.476       .  S
C474        C475   1.397       .  A
C475        H480   1.084       .  S
C475        C476   1.405       .  A
C476        C607   1.487       .  S
C476        C477   1.424       .  A
C477        C550   1.484       .  S
C477        C478   1.405       .  A
C478        H479   1.084       .  S
C481       C1126   1.482       .  S
C481        C482   1.416       .  A
C481        C486   1.400   1_455  A
C482        C994   1.486       .  S
C482        C483   1.402       .  A
C483        H488   1.085       .  S
C483       C2824   1.401   1_455  A
C484        C571   1.486       .  S
C484        C485   1.416       .  A
C484       C2823   1.401       .  A
C485        C634   1.482       .  S
C485       C2826   1.402       .  A
C486        H487   1.085       .  S
C486       C2825   1.402       .  A
C489       C1138   1.486       .  S
C489        C490   1.417       .  A
C489        C494   1.405       .  A
C490        C946   1.478       .  S
C490        C491   1.400       .  A
C491        H496   1.084       .  S
C491        C492   1.398       .  A
C492        C559   1.479       .  S
C492        C493   1.412       .  A
C493        C727   1.480       .  S
C493        C494   1.402       .  A
C494        H495   1.084       .  S
C497        C934   1.485       .  S
C497        C498   1.416       .  A
C497        C502   1.403       .  A
C498       C1003   1.487       .  S
C498        C499   1.406       .  A
C499        H504   1.084       .  S
C499       C1670   1.404       .  A
C500        C715   1.484       .  S
C500        C501   1.415       .  A
C500       C1669   1.404   1_545  A
C501        C622   1.487       .  S
C501       C1672   1.406       .  A
C502        H503   1.084       .  S
C502       C1671   1.406       .  A
C505       C3082   1.495   1_554  S
C505        C506   1.413   1_655  A
C505       C4020   1.416   1_545  A
C506        C790   1.480       .  S
C506       C1677   1.413       .  A
C507        C850   1.492       .  S
C507        C508   1.415       .  A
C507       C1676   1.413       .  A
C508        C754   1.493       .  S
C508       C2849   1.420   1_455  A
C509        C802   1.491       .  S
C509        C510   1.422       .  A
C509       C2848   1.420       .  A
C510       C2008   1.493   1_554  S
C510       C4015   1.416       .  A
C511       C1111   1.493       .  S
C511        C512   1.414       .  A
C511        C516   1.416       .  A
C512        C979   1.495       .  S
C512        C513   1.419       .  A
C513        C919   1.482       .  S
C513        C514   1.416       .  A
C514       C1099   1.490       .  S
C514        C515   1.412       .  A
C515        C970   1.494       .  S
C515        C516   1.415       .  A
C516        C910   1.478       .  S
C517        C526   1.497       .  S
C517        C518   1.420       .  A
C517        C522   1.425       .  A
C518        C679   1.494       .  S
C518        C519   1.415       .  A
C519        C586   1.504       .  S
C519        C520   1.420       .  A
C520        C538   1.495       .  S
C520        C521   1.427       .  A
C521        C670   1.499       .  S
C521        C522   1.425       .  A
C522        C595   1.501       .  S
C523        C524   1.407       .  A
C523        C528   1.410       .  A
C524        H533   1.084       .  S
C524        C525   1.397       .  A
C525        C526   1.415       .  A
C525        S529   1.810       .  S
C526        C527   1.410       .  A
C527        H534   1.083       .  S
C527        C528   1.401       .  A
C528        S530   1.798       .  S
S529        H532   1.399       .  S
S530        H531   1.407       .  S
C535        C536   1.408       .  A
C535        C540   1.417       .  A
C536        H545   1.083       .  S
C536        C537   1.399       .  A
C537        C538   1.414       .  A
C537        S541   1.799       .  S
C538        C539   1.404       .  A
C539        H546   1.084       .  S
C539        C540   1.396       .  A
C540        S542   1.801       .  S
S541        H544   1.395       .  S
S542        H543   1.408       .  S
C547        C548   1.408       .  A
C547        C552   1.415       .  A
C548        H557   1.081       .  S
C548        C549   1.400       .  A
C549        C550   1.411       .  A
C549        S553   1.804       .  S
C550        C551   1.405       .  A
C551        H558   1.084       .  S
C551        C552   1.399       .  A
C552        S554   1.803       .  S
S553        H556   1.405       .  S
S554        H555   1.408       .  S
C559        C560   1.404       .  A
C559        C564   1.410       .  A
C560        H569   1.084       .  S
C560        C561   1.399       .  A
C561        C562   1.414       .  A
C561        S565   1.802       .  S
C562        C563   1.408       .  A
C563        H570   1.084       .  S
C563        C564   1.395       .  A
C564        S566   1.807       .  S
S565        H568   1.407       .  S
S566        H567   1.404       .  S
C571        C572   1.402       .  A
C571        C576   1.413       .  A
C572       H2921   1.084       .  S
C572        C573   1.400       .  A
C573        C574   1.420       .  A
C573        S577   1.802       .  S
C574        C575   1.407       .  A
C575        H582   1.084       .  S
C575        C576   1.399       .  A
C576        S578   1.805       .  S
S577        H580   1.408       .  S
S578        H579   1.406       .  S
H581       C2912   1.084       .  S
C583        C584   1.407       .  A
C583        C588   1.420       .  A
C584        H593   1.083       .  S
C584        C585   1.401       .  A
C585        C586   1.414       .  A
C585        S589   1.802       .  S
C586        C587   1.404       .  A
C587        H594   1.083       .  S
C587        C588   1.401       .  A
C588        S590   1.801       .  S
S589        H592   1.403       .  S
S590        H591   1.408       .  S
C595        C596   1.404       .  A
C595        C600   1.418       .  A
C596        H605   1.084       .  S
C596        C597   1.402       .  A
C597        C598   1.420       .  A
C597        S601   1.798       .  S
C598        C599   1.408       .  A
C599        H606   1.083       .  S
C599        C600   1.400       .  A
C600        S602   1.805       .  S
S601        H604   1.408       .  S
S602        H603   1.393       .  S
C607        C608   1.405       .  A
C607        C612   1.413       .  A
C608        H617   1.083       .  S
C608        C609   1.403       .  A
C609       C1780   1.413       .  A
C609        S613   1.808       .  S
C610        C611   1.408       .  A
C610       C1779   1.413       .  A
C611        H618   1.084       .  S
C611       C1782   1.402       .  A
C612       C1781   1.402       .  A
C612       S1784   1.804       .  S
S613        H616   1.406       .  S
S614       C1782   1.804       .  S
S614       H1785   1.405       .  S
H615       S1784   1.405       .  S
C619        C620   1.406       .  A
C619        C624   1.419       .  A
C620        H629   1.084       .  S
C620        C621   1.405       .  A
C621        C622   1.415       .  A
C621        S625   1.804       .  S
C622        C623   1.400       .  A
C623       H1800   1.084   1_545  S
C623        C624   1.397       .  A
C624       S1796   1.804   1_545  S
S625        H628   1.405       .  S
S626       C1794   1.804       .  S
S626        H627   1.407       .  S
H630       C1793   1.084       .  S
C631        C632   1.406       .  A
C631        C636   1.419       .  A
C632       H2981   1.083       .  S
C632       C2973   1.401       .  A
C633       C2972   1.401   1_455  A
C633       C2974   1.413   1_455  A
C633        S637   1.805       .  S
C634        C635   1.399       .  A
C634       C2973   1.413       .  A
C635        H642   1.084       .  S
C635        C636   1.398       .  A
C636        S638   1.800       .  S
S637        H640   1.406       .  S
S638        H639   1.408       .  S
H641       C2972   1.083   1_455  S
C643        C644   1.407       .  A
C643        C648   1.413       .  A
C644        H653   1.084       .  S
C644        C645   1.400       .  A
C645        C646   1.410       .  A
C645        S649   1.802       .  S
C646       C2770   1.473   1_455  S
C646        C647   1.405       .  A
C647       H2994   1.085       .  S
C647        C648   1.395       .  A
C648        S650   1.809       .  S
S649        H652   1.407       .  S
S650        H651   1.403       .  S
H654       C2987   1.085       .  S
C655        C656   1.403       .  A
C655        C660   1.410       .  A
C656        H665   1.084       .  S
C656       C2997   1.404       .  A
C657       C2996   1.404       .  A
C657       C2998   1.422       .  A
C657        S661   1.802       .  S
C658       C2734   1.500   1_455  S
C658        C659   1.411       .  A
C658       C2997   1.422       .  A
C659        H666   1.081       .  S
C659        C660   1.401       .  A
C660        S662   1.802       .  S
S661        H664   1.408       .  S
S662        H663   1.406       .  S
C667        C668   1.403       .  A
C667        C672   1.419       .  A
C668        H677   1.084       .  S
C668        C669   1.403       .  A
C669        C670   1.421       .  A
C669        S673   1.801       .  S
C670        C671   1.402       .  A
C671        H678   1.084       .  S
C671        C672   1.398       .  A
C672        S674   1.801       .  S
S673        H676   1.394       .  S
S674        H675   1.408       .  S
C679        C680   1.403       .  A
C679        C684   1.415       .  A
C680        H689   1.081       .  S
C680        C681   1.393       .  A
C681        C682   1.415       .  A
C681        S685   1.804       .  S
C682        C683   1.408       .  A
C683        H690   1.084       .  S
C683        C684   1.402       .  A
C684        S686   1.805       .  S
S685        H688   1.408       .  S
S686        H687   1.404       .  S
C691       C1500   1.483       .  S
C691        C692   1.405       .  A
C691       C1866   1.420       .  A
C692        H701   1.084       .  S
C692        C693   1.399       .  A
C693        C694   1.414       .  A
C693        S697   1.801       .  S
C694        C695   1.398       .  A
C695        H702   1.084       .  S
C695       C1866   1.395       .  A
C696       C1861   1.420   1_545  A
C696       C1865   1.395   1_545  A
C696        S698   1.802       .  S
S697        H700   1.406       .  S
S698        H699   1.408       .  S
C703        C704   1.400       .  A
C703        C708   1.415       .  A
C704        H713   1.084       .  S
C704        C705   1.399       .  A
C705        C706   1.418       .  A
C705        S709   1.804       .  S
C706        C707   1.400       .  A
C707        H714   1.083       .  S
C707        C708   1.395       .  A
C708        S710   1.801       .  S
S709        H712   1.404       .  S
S710        H711   1.400       .  S
C715        C716   1.401       .  A
C715        C720   1.412   1_545  A
C716        H725   1.083       .  S
C716        C717   1.401       .  A
C717        C718   1.418       .  A
C717        S721   1.803       .  S
C718        C719   1.408   1_545  A
C719        H726   1.082       .  S
C719        C720   1.400       .  A
C720       S1892   1.805       .  S
S721        H724   1.407       .  S
S722       C1890   1.805       .  S
S722        H723   1.405       .  S
C727        C728   1.401       .  A
C727        C732   1.411       .  A
C728        H737   1.083       .  S
C728        C729   1.393       .  A
C729        C730   1.418       .  A
C729        S733   1.805       .  S
C730        C731   1.409       .  A
C731        H738   1.084       .  S
C731        C732   1.401       .  A
C732        S734   1.804       .  S
S733        H736   1.408       .  S
S734        H735   1.405       .  S
C739        C740   1.410   1_556  A
C739       C3084   1.421       .  A
C740        H749   1.080       .  S
C740        C741   1.398       .  A
C741        C742   1.411   1_554  A
C741        S745   1.805       .  S
C742       C2845   1.495   1_556  S
C742       C3083   1.403       .  A
C743        H750   1.083   1_655  S
C743        C744   1.402       .  A
C743       C3082   1.403       .  A
C744       C3079   1.421       .  A
C744        S746   1.798   1_655  S
S745        H748   1.400       .  S
S746        H747   1.408       .  S
C751        C752   1.409   1_554  A
C751        C756   1.411       .  A
C752       H3101   1.084   1_455  S
C752       C3093   1.398   1_455  A
C753       C3092   1.398       .  A
C753       C3094   1.413   1_556  A
C753        S757   1.807       .  S
C754        C755   1.405       .  A
C754       C3093   1.413   1_454  A
C755        H762   1.082       .  S
C755        C756   1.396       .  A
C756        S758   1.801       .  S
S757        H760   1.403       .  S
S758        H759   1.408       .  S
H761       C3092   1.084       .  S
C763        C764   1.412       .  A
C763        C768   1.416       .  A
C764        H773   1.084       .  S
C764        C765   1.403       .  A
C765        C766   1.411       .  A
C765        S769   1.805       .  S
C766        C767   1.404       .  A
C767        H774   1.084       .  S
C767        C768   1.400       .  A
C768        S770   1.802       .  S
S769        H772   1.405       .  S
S770        H771   1.407       .  S
C775        C776   1.402       .  A
C775        C780   1.416       .  A
C776        H785   1.084       .  S
C776        C777   1.402       .  A
C777        C778   1.419       .  A
C777       S3121   1.803       .  S
C778        C779   1.404       .  A
C779        H786   1.082       .  S
C779        C780   1.409       .  A
C780        S782   1.803       .  S
S781       C3117   1.803       .  S
S781        H784   1.407       .  S
S782        H783   1.407       .  S
C787        C788   1.409   1_554  A
C787        C792   1.415       .  A
C788        H797   1.083       .  S
C788        C789   1.397       .  A
C789        C790   1.410   1_556  A
C789        S793   1.809       .  S
C790        C791   1.401       .  A
C791        H798   1.080       .  S
C791        C792   1.395       .  A
C792        S794   1.802       .  S
S793        H796   1.402       .  S
S794        H795   1.407       .  S
C799        C800   1.407   1_556  A
C799        C804   1.419       .  A
C800        H809   1.084       .  S
C800        C801   1.397       .  A
C801        C802   1.417       .  A
C801        S805   1.809       .  S
C802        C803   1.403   1_554  A
C803        H810   1.084       .  S
C803        C804   1.398       .  A
C804        S806   1.802       .  S
S805        H808   1.398       .  S
S806        H807   1.407       .  S
C811        C812   1.408       .  A
C811        C816   1.417       .  A
C812        H821   1.084       .  S
C812        C813   1.396       .  A
C813        C814   1.410       .  A
C813        S817   1.809       .  S
C814        C815   1.401       .  A
C815        H822   1.084       .  S
C815        C816   1.397       .  A
C816        S818   1.803       .  S
S817        H820   1.401       .  S
S818        H819   1.408       .  S
C823        C824   1.403       .  A
C823        C828   1.415       .  A
C824        H833   1.084       .  S
C824        C825   1.398       .  A
C825        C826   1.417       .  A
C825        S829   1.801       .  S
C826        C827   1.406       .  A
C827        H834   1.084       .  S
C827        C828   1.394       .  A
C828        S830   1.807       .  S
S829        H832   1.408       .  S
S830        H831   1.401       .  S
C835        C836   1.406   1_546  A
C835        C840   1.412       .  A
C836       H2015   1.084       .  S
C836       C2007   1.395       .  A
C837       C2006   1.395       .  A
C837       C2008   1.413   1_554  A
C837        S841   1.802       .  S
C838       C1680   1.493   1_556  S
C838        C839   1.407   1_565  A
C838       C2007   1.413   1_556  A
C839        H846   1.084       .  S
C839        C840   1.401       .  A
C840        S842   1.801       .  S
S841        H844   1.395       .  S
S842        H843   1.407       .  S
H845       C2006   1.084       .  S
C847        C852   1.421   1_554  A
C847       C2018   1.408       .  A
C848        H857   1.083       .  S
C848        C849   1.402       .  A
C848       C2017   1.408   1_545  A
C849       C2020   1.414       .  A
C849        S853   1.806       .  S
C850        C851   1.401   1_554  A
C850       C2019   1.414       .  A
C851        H858   1.083       .  S
C851        C852   1.396       .  A
C852        S854   1.805       .  S
S853        H856   1.403       .  S
S854        H855   1.408       .  S
C859        C860   1.409       .  A
C859        C864   1.415       .  A
C860        H869   1.084       .  S
C860        C861   1.399       .  A
C861        C862   1.410       .  A
C861        S865   1.806       .  S
C862        C863   1.405       .  A
C863        H870   1.084       .  S
C863        C864   1.401       .  A
C864        S866   1.803       .  S
S865        H868   1.404       .  S
S866       H2037   1.407       .  S
H867       S2036   1.407       .  S
C871        C872   1.401       .  A
C871        C876   1.410       .  A
C872        H881   1.084       .  S
C872        C873   1.397       .  A
C873        C874   1.416       .  A
C873        S877   1.803       .  S
C874        C875   1.408       .  A
C875        H882   1.084       .  S
C875        C876   1.396       .  A
C876        S878   1.806       .  S
S877        H880   1.408       .  S
S878        H879   1.401       .  S
C883        C884   1.403       .  A
C883        C888   1.411       .  A
C884        H893   1.082       .  S
C884        C885   1.408       .  A
C885        C886   1.423       .  A
C885       S3229   1.811       .  S
C886        C887   1.411       .  A
C887        H894   1.082       .  S
C887        C888   1.409       .  A
C888        S890   1.807       .  S
S889       C3225   1.811       .  S
S889        H892   1.407       .  S
S890        H891   1.407       .  S
C895        C896   1.402       .  A
C895        C900   1.407       .  A
C896        H905   1.084       .  S
C896        C897   1.397       .  A
C897        C898   1.415       .  A
C897        S901   1.802       .  S
C898        C899   1.409       .  A
C899        H906   1.084       .  S
C899        C900   1.393       .  A
C900        S902   1.806       .  S
S901        H904   1.407       .  S
S902        H903   1.403       .  S
C907        C908   1.409       .  A
C907        C912   1.420       .  A
C908        H917   1.084       .  S
C908        C909   1.398       .  A
C909        C910   1.412       .  A
C909        S913   1.808       .  S
C910        C911   1.398       .  A
C911        H918   1.083       .  S
C911        C912   1.394       .  A
C912        S914   1.799       .  S
S913        H916   1.399       .  S
S914        H915   1.408       .  S
C919        C920   1.401       .  A
C919        C924   1.411       .  A
C920        H929   1.083       .  S
C920        C921   1.397       .  A
C921        C922   1.414       .  A
C921        S925   1.798       .  S
C922        C923   1.411       .  A
C923        H930   1.084       .  S
C923        C924   1.398       .  A
C924        S926   1.807       .  S
S925        H928   1.408       .  S
S926        H927   1.400       .  S
C931        C932   1.410       .  A
C931        C936   1.417       .  A
C932        H941   1.083       .  S
C932        C933   1.397       .  A
C933        C934   1.410       .  A
C933        S937   1.806       .  S
C934        C935   1.404       .  A
C935       H2112   1.083       .  S
C935        C936   1.404       .  A
C936       S2108   1.801       .  S
S937        H940   1.405       .  S
S938       C2106   1.801       .  S
S938        H939   1.407       .  S
H942       C2105   1.083       .  S
C943        C944   1.405       .  A
C943        C948   1.416       .  A
C944        H953   1.084       .  S
C944        C945   1.399       .  A
C945        C946   1.413       .  A
C945        S949   1.802       .  S
C946        C947   1.398       .  A
C947        H954   1.084       .  S
C947        C948   1.393       .  A
C948        S950   1.800       .  S
S949        H952   1.406       .  S
S950        H951   1.407       .  S
C955        C956   1.402       .  A
C955        C960   1.419       .  A
C956        H965   1.084       .  S
C956        C957   1.398       .  A
C957        C958   1.414       .  A
C957        S961   1.804       .  S
C958        C959   1.399       .  A
C959        H966   1.084       .  S
C959        C960   1.396       .  A
C960        S962   1.804       .  S
S961        H964   1.406       .  S
S962        H963   1.408       .  S
C967        C968   1.411       .  A
C967        C972   1.420       .  A
C968        H977   1.084       .  S
C968        C969   1.400       .  A
C969        C970   1.413       .  A
C969        S973   1.808       .  S
C970        C971   1.402       .  A
C971        H978   1.083       .  S
C971        C972   1.400       .  A
C972        S974   1.801       .  S
S973        H976   1.399       .  S
S974        H975   1.408       .  S
C979        C980   1.400       .  A
C979        C984   1.419       .  A
C980        H989   1.082       .  S
C980        C981   1.394       .  A
C981        C982   1.417       .  A
C981        S985   1.802       .  S
C982        C983   1.405       .  A
C983        H990   1.084       .  S
C983        C984   1.403       .  A
C984        S986   1.807       .  S
S985        H988   1.408       .  S
S986        H987   1.398       .  S
C991        C992   1.406       .  A
C991        C996   1.419       .  A
C992       H1001   1.084       .  S
C992        C993   1.399       .  A
C993        C994   1.414       .  A
C993        S997   1.804       .  S
C994        C995   1.401       .  A
C995       H1002   1.082   1_455  S
C995        C996   1.397       .  A
C996        S998   1.801   1_455  S
S997       H1000   1.407       .  S
S998        H999   1.407   1_655  S
C1003      C1004   1.402       .  A
C1003      C1008   1.411       .  A
C1004      H1013   1.083       .  S
C1004      C1005   1.402       .  A
C1005      C1006   1.422       .  A
C1005      S1009   1.802       .  S
C1006      C1007   1.411       .  A
C1007      H1014   1.083       .  S
C1007      C1008   1.400       .  A
C1008      S2180   1.805       .  S
S1009      H1012   1.408       .  S
S1010      C2178   1.805   1_545  S
S1010      H1011   1.405       .  S
C1015      C1016   1.404       .  A
C1015      C1020   1.415       .  A
C1016      H1025   1.084       .  S
C1016      C1017   1.401       .  A
C1017      C1018   1.420       .  A
C1017      S1021   1.804       .  S
C1018      C2410   1.493       .  S
C1018      C1019   1.407       .  A
C1019      H3366   1.084       .  S
C1019      C1020   1.404       .  A
C1020      S1022   1.803       .  S
S1021      H1024   1.408       .  S
S1022      H1023   1.406       .  S
H1026      C3359   1.084   1_455  S
C1027      C1028   1.401       .  A
C1027      C1032   1.419       .  A
C1028      H1037   1.084       .  S
C1028      C1029   1.399       .  A
C1029      C1030   1.419       .  A
C1029      S1033   1.800       .  S
C1030      C1031   1.405       .  A
C1031      H1038   1.084       .  S
C1031      C1032   1.405       .  A
C1032      S1034   1.806       .  S
S1033      H1036   1.407       .  S
S1034      H1035   1.404       .  S
C1039      C1040   1.405       .  A
C1039      C1044   1.410       .  A
C1040      H1049   1.084       .  S
C1040      C1041   1.403       .  A
C1041      C1042   1.417       .  A
C1041      S2215   1.802   1_545  S
C1042      C1043   1.410       .  A
C1043      H1050   1.083       .  S
C1043      C1044   1.400       .  A
C1044      S1046   1.802       .  S
S1045      C2211   1.802       .  S
S1045      H1048   1.407       .  S
S1046      H1047   1.406       .  S
C1051      C1288   1.480   1_545  S
C1051      C1052   1.407   1_545  A
C1051      C1056   1.412       .  A
C1052      H2231   1.084       .  S
C1052      C1053   1.397   1_565  A
C1053      C1054   1.413       .  A
C1053      S1057   1.808   1_545  S
C1054      C1055   1.407       .  A
C1055      H1062   1.083       .  S
C1055      C1056   1.398       .  A
C1056      S1058   1.803       .  S
S1057      H1060   1.403   1_565  S
S1058      H1059   1.407       .  S
H1061      C2222   1.084       .  S
C1063      C1064   1.402       .  A
C1063      C1068   1.412       .  A
C1064      H1073   1.084       .  S
C1064      C1065   1.396       .  A
C1065      C1066   1.415       .  A
C1065      S1069   1.803       .  S
C1066      C1067   1.408       .  A
C1067      H1074   1.084       .  S
C1067      C1068   1.398       .  A
C1068      S1070   1.808       .  S
S1069      H1072   1.408       .  S
S1070      H1071   1.401       .  S
C1075      C1076   1.400       .  A
C1075      C1080   1.408       .  A
C1076      H1085   1.083       .  S
C1076      C1077   1.403       .  A
C1077      C1078   1.422       .  A
C1077      S1081   1.811       .  S
C1078      C1079   1.409       .  A
C1079      H1086   1.083       .  S
C1079      C1080   1.396       .  A
C1080      S1082   1.804       .  S
S1081      H1084   1.406       .  S
S1082      H1083   1.404       .  S
C1087      C1088   1.405       .  A
C1087      C1092   1.410       .  A
C1088      H1097   1.084       .  S
C1088      C2259   1.400   1_545  A
C1089      C1090   1.416       .  A
C1089      C2258   1.400       .  A
C1089      S1093   1.803       .  S
C1090      C2261   1.410       .  A
C1091      H1098   1.084       .  S
C1091      C1092   1.398       .  A
C1091      C2260   1.410       .  A
C1092      S1094   1.802       .  S
S1093      H1096   1.408       .  S
S1094      H1095   1.406       .  S
C1099      C1100   1.397       .  A
C1099      C1104   1.416       .  A
C1100      H1109   1.081       .  S
C1100      C1101   1.394       .  A
C1101      C1102   1.419       .  A
C1101      S1105   1.803       .  S
C1102      C1103   1.407       .  A
C1103      H1110   1.084       .  S
C1103      C1104   1.405       .  A
C1104      S1106   1.807       .  S
S1105      H1108   1.408       .  S
S1106      H1107   1.402       .  S
C1111      C1112   1.397       .  A
C1111      C1116   1.413       .  A
C1112      H1121   1.079       .  S
C1112      C1113   1.399       .  A
C1113      C1114   1.423       .  A
C1113      S1117   1.798       .  S
C1114      C1115   1.411       .  A
C1115      H1122   1.083       .  S
C1115      C1116   1.403       .  A
C1116      S1118   1.807       .  S
S1117      H1120   1.408       .  S
S1118      H1119   1.403       .  S
C1123      C1124   1.407   1_455  A
C1123      C1128   1.425       .  A
C1124      H1133   1.084       .  S
C1124      C1125   1.404       .  A
C1125      C1126   1.414   1_655  A
C1125      S3469   1.806       .  S
C1126      C1127   1.396       .  A
C1127      H1134   1.085       .  S
C1127      C1128   1.397       .  A
C1128      S1130   1.800       .  S
S1129      C3465   1.806       .  S
S1129      H1132   1.404       .  S
S1130      H1131   1.407       .  S
C1135      C1136   1.406       .  A
C1135      C1140   1.413       .  A
C1136      H1145   1.081       .  S
C1136      C1137   1.399       .  A
C1137      C1138   1.413       .  A
C1137      S1141   1.807       .  S
C1138      C1139   1.405       .  A
C1139      H1146   1.083       .  S
C1139      C1140   1.396       .  A
C1140      S1142   1.804       .  S
S1141      H1144   1.404       .  S
S1142      H1143   1.408       .  S
C1147      C1148   1.400       .  A
C1147      C1152   1.415       .  A
C1148      H1157   1.084       .  S
C1148      C1149   1.398       .  A
C1149      C1150   1.417       .  A
C1149      S3493   1.802       .  S
C1150      C2358   1.479       .  S
C1150      C1151   1.403       .  A
C1151      H1158   1.084       .  S
C1151      C1152   1.400       .  A
C1152      S1154   1.801       .  S
S1153      C3489   1.802       .  S
S1153      H1156   1.407   1_655  S
S1154      H1155   1.406       .  S
C1159      C1160   1.402       .  A
C1159      C1164   1.418       .  A
C1160      H1169   1.084       .  S
C1160      C1161   1.400       .  A
C1161      C1162   1.418       .  A
C1161      S1165   1.803       .  S
C1162      C1163   1.404       .  A
C1163      H1170   1.084       .  S
C1163      C1164   1.402       .  A
C1164      S1166   1.807       .  S
S1165      H1168   1.407       .  S
S1166      H1167   1.403       .  S
O1171     Mg1173   2.167       .  S
O1171     Mg1179   2.159       .  S
O1171      C1206   1.235       .  S
C1172      O1185   1.235       .  S
C1172      O1209   1.270       .  A
C1172      H1211   1.080       .  S
Mg1173     O1202   2.152       .  S
Mg1173     O1217   2.326   1_455  S
Mg1173     O1213   2.300       .  S
Mg1173     O1184   2.311       .  S
O1174     Mg1216   2.152       .  S
O1174     Mg1199   2.142       .  S
O1174      C1195   1.234       .  S
O1175      C1206   1.271       .  A
O1175     Mg1199   2.310       .  S
C1176      O1178   1.270       .  A
C1176      O1190   1.270       .  A
C1176      C2305   1.481       .  S
O1177      C1205   1.269       .  A
O1177     Mg1179   2.299       .  S
O1178     Mg1210   2.263       .  S
Mg1179     O1185   2.164       .  S
Mg1179     O3533   2.267   1_455  S
Mg1179     O1181   2.308       .  S
C1180      O1218   1.271       .  A
C1180      O1186   1.271       .  A
C1180      C2272   1.488       .  S
O1181      C1188   1.275       .  A
H1182      C1195   1.083       .  S
C1183      O1197   1.235       .  S
C1183      O1198   1.269       .  A
C1183      H1208   1.081       .  S
O1184      C1207   1.271       .  A
O1185     Mg1199   2.159       .  S
O1186     Mg1216   2.295       .  S
C1187      O1200   1.269       .  A
C1187      O1192   1.273       .  A
C1187      C2332   1.485       .  S
C1188      O1215   1.268       .  A
C1188      C4660   1.479   1_455  S
Mg1189     O1196   2.163       .  S
Mg1189     O1197   2.144       .  S
Mg1189     O1190   2.278       .  S
Mg1189     O1191   2.310       .  S
Mg1189     O1218   2.280       .  S
O1191      C1195   1.270       .  A
O1192     Mg1199   2.309       .  S
O1193      C1212   1.271       .  A
O1193     Mg3519   2.267       .  S
O1194      C1214   1.270       .  A
O1194     Mg1210   2.285       .  S
O1196     Mg1210   2.164       .  S
O1196      C1207   1.235       .  S
O1197     Mg1216   2.146       .  S
O1198     Mg1210   2.301       .  S
Mg1199     O1215   2.244       .  S
O1200     Mg1216   2.259       .  S
H1201      C1206   1.081   1_655  S
O1202     Mg1210   2.151       .  S
O1202      C1205   1.234       .  S
H1203      C1205   1.082       .  S
H1204      C1207   1.081       .  S
O1209     Mg1216   2.303       .  S
C1212      O3557   1.279       .  A
C1212      C2284   1.502       .  S
O1213      C1214   1.276       .  A
C1214      C2293   1.496       .  S
O1217      C3552   1.279       .  A
C1219      C2257   1.484       .  S
C1219      C1220   1.423       .  A
C1219      C1224   1.404       .  A
C1220      C2329   1.488       .  S
C1220      C1221   1.406       .  A
C1221      H1226   1.084       .  S
C1221      C1222   1.400       .  A
C1222      C2233   1.477       .  S
C1222      C1223   1.408       .  A
C1223      C2245   1.479       .  S
C1223      C1224   1.396       .  A
C1224      H1225   1.084       .  S
C1227      C2224   1.487       .  S
C1227      C1228   1.414       .  A
C1227      C1232   1.402       .  A
C1228      C2317   1.487       .  S
C1228      C1229   1.403       .  A
C1229      H1234   1.085       .  S
C1229      C1230   1.408       .  A
C1230      C2197   1.493       .  S
C1230      C1231   1.422       .  A
C1231      C2209   1.487       .  S
C1231      C1232   1.404       .  A
C1232      H1233   1.085       .  S
O1235     Mg1237   2.140       .  S
O1235     Mg1243   2.147       .  S
O1235      C1270   1.234       .  S
C1236      O1249   1.235       .  S
C1236      O1273   1.269       .  A
C1236      H1275   1.082       .  S
Mg1237     O1266   2.164       .  S
Mg1237     O1277   2.242       .  S
Mg1237     O1248   2.298       .  S
O1238     Mg1280   2.158       .  S
O1238     Mg1263   2.152       .  S
O1238      C1259   1.235       .  S
O1239      C1270   1.268       .  A
O1239     Mg1263   2.296       .  S
C1240      O1242   1.276       .  A
C1240      O1254   1.272       .  A
C1240      C4528   1.493   1_455  S
O1241      C1269   1.272       .  A
O1241     Mg1243   2.309       .  S
O1242     Mg1274   2.300       .  S
Mg1243     O1249   2.149       .  S
Mg1243     O1245   2.308       .  S
C1244      O1282   1.270       .  A
C1244      O3590   1.273       .  A
C1244      C2152   1.486       .  S
O1245      C1252   1.277       .  A
H1246      C1259   1.081       .  S
C1247      O1261   1.233       .  S
C1247      O1262   1.268       .  A
C1247      H1272   1.082       .  S
O1248      C1271   1.269       .  A
O1249     Mg1263   2.160       .  S
O1250      C3584   1.273       .  A
O1250     Mg1280   2.300   1_655  S
C1251      O1264   1.271       .  A
C1251      O1256   1.275       .  A
C1251      C2161   1.487       .  S
C1252      O1279   1.272       .  A
C1252      C2176   1.499       .  S
Mg1253     O1260   2.153       .  S
Mg1253     O1261   2.152       .  S
Mg1253     O1254   2.282       .  S
Mg1253     O1255   2.304       .  S
Mg1253     O3622   2.264   1_455  S
O1255      C1259   1.270       .  A
O1256     Mg1263   2.293       .  S
O1257      C1276   1.271       .  A
O1258      C1278   1.276       .  A
O1258     Mg1274   2.313       .  S
O1260     Mg1274   2.173       .  S
O1260      C1271   1.235       .  S
O1261     Mg1280   2.156       .  S
O1262     Mg1274   2.303       .  S
Mg1263     O1279   2.273       .  S
O1264     Mg1280   2.265       .  S
H1265      C1270   1.081       .  S
O1266     Mg1274   2.165       .  S
O1266      C1269   1.236       .  S
H1267      C1269   1.081       .  S
H1268      C1271   1.082       .  S
O1273     Mg1280   2.298       .  S
C1276      O1281   1.274       .  A
C1276      C2137   1.499       .  S
O1277      C1278   1.270       .  A
C1278      C2260   1.488   1_565  S
O1282     Mg3593   2.264       .  S
O1283     Mg1285   2.146       .  S
O1283     Mg1291   2.156       .  S
O1283      C1318   1.236       .  S
C1284      O1297   1.236       .  S
C1284      O1321   1.272       .  A
C1284      H1323   1.081       .  S
Mg1285     O1314   2.139       .  S
Mg1285     O1329   2.281       .  S
Mg1285     O1325   2.256       .  S
Mg1285     O1296   2.304       .  S
O1286     Mg1328   2.145       .  S
O1286     Mg1311   2.137       .  S
O1286      C1307   1.233       .  S
O1287      C1318   1.271       .  A
O1287     Mg1311   2.308       .  S
C1288      O1290   1.268       .  A
C1288      O1302   1.274       .  A
O1289      C1317   1.268       .  A
O1289     Mg1291   2.300       .  S
O1290     Mg1322   2.233       .  S
Mg1291     O1297   2.159       .  S
Mg1291     O1305   2.278       .  S
Mg1291     O1293   2.296       .  S
C1292      O1330   1.272       .  A
C1292      C2077   1.489       .  S
O1293      C1300   1.273       .  A
H1294      C1307   1.082       .  S
C1295      O1309   1.235       .  S
C1295      O1310   1.269       .  A
C1295      H1320   1.081   1_565  S
O1296      C1319   1.270       .  A
O1297     Mg1311   2.146       .  S
O1298     Mg1328   2.296   1_545  S
C1299      O1312   1.272       .  A
C1299      O1304   1.273       .  A
C1299      C2101   1.492       .  S
C1300      O1327   1.267       .  A
C1300      C2113   1.476       .  S
Mg1301     O1308   2.139       .  S
Mg1301     O1309   2.167       .  S
Mg1301     O1302   2.305       .  S
Mg1301     O1303   2.297       .  S
O1303      C1307   1.268       .  A
O1304     Mg1311   2.292       .  S
O1305      C1324   1.272       .  A
O1306      C1326   1.269       .  A
O1306     Mg1322   2.280       .  S
O1308     Mg1322   2.152       .  S
O1308      C1319   1.235       .  S
O1309     Mg1328   2.146       .  S
O1310     Mg1322   2.293       .  S
Mg1311     O1327   2.237       .  S
O1312     Mg1328   2.285       .  S
H1313      C1318   1.082       .  S
O1314     Mg1322   2.134       .  S
O1314      C1317   1.233       .  S
H1315      C1317   1.082       .  S
H1316      C1319   1.081       .  S
O1321     Mg1328   2.311       .  S
C1324      O1329   1.272       .  A
C1324      C2092   1.490       .  S
O1325      C1326   1.269       .  A
C1326      C2125   1.475       .  S
C1331      C2128   1.479       .  S
C1331      C1332   1.417       .  A
C1331      C1336   1.393       .  A
C1332      C2185   1.495       .  S
C1332      C1333   1.416       .  A
C1333      H1338   1.083       .  S
C1333      C1334   1.414       .  A
C1334      C2053   1.498       .  S
C1334      C1335   1.413       .  A
C1335      C2065   1.469       .  S
C1335      C1336   1.392       .  A
C1336      H1337   1.085       .  S
O1339     Mg1341   2.142   1_554  S
O1339      C1374   1.234       .  S
C1340      O1353   1.234   1_565  S
C1340      O1377   1.269       .  A
C1340      H1379   1.081       .  S
Mg1341     O1352   2.301       .  S
O1342     Mg1367   2.143       .  S
O1342      C1363   1.236       .  S
O1343      C1374   1.269       .  A
O1343     Mg1367   2.298       .  S
C1344      O1346   1.268       .  A
C1344      O1358   1.274       .  A
C1344      C2044   1.484       .  S
O1345      C1373   1.268   1_554  A
O1345     Mg1347   2.293   1_565  S
O1346     Mg1378   2.244       .  S
Mg1347     O1353   2.157       .  S
Mg1347     O1361   2.285       .  S
C1348      O1386   1.271       .  A
C1348      O1354   1.272   1_556  A
C1348      C2005   1.482       .  S
O1349      C1356   1.276       .  A
H1350      C1363   1.082       .  S
C1351      O1365   1.235       .  S
C1351      O1366   1.270       .  A
C1351      H1376   1.080   1_556  S
O1352      C1375   1.269       .  A
C1355      O1368   1.271       .  A
C1355      O1360   1.274       .  A
C1355      C2212   1.491       .  S
C1356      O1383   1.267       .  A
C1356      C2248   1.491       .  S
Mg1357     O1364   2.154       .  S
Mg1357     O1359   2.308       .  S
Mg1357     O1386   2.273       .  S
O1359      C1363   1.271   1_556  A
O1360     Mg1367   2.300       .  S
O1361      C1380   1.275   1_545  A
O1362      C1382   1.274       .  A
O1362     Mg1378   2.298       .  S
O1364      C1375   1.234       .  S
O1365     Mg1384   2.148   1_556  S
O1366     Mg1378   2.307       .  S
Mg1367     O1383   2.238       .  S
H1369      C1374   1.081   1_556  S
O1370     Mg1378   2.137       .  S
O1370      C1373   1.234       .  S
H1371      C1373   1.082       .  S
H1372      C1375   1.081       .  S
O1377     Mg1384   2.299       .  S
C1380      O1385   1.270   1_554  A
C1380      C2017   1.492       .  S
O1381      C1382   1.271       .  A
C1382      C2029   1.487       .  S
O1387     Mg1389   2.131   1_556  S
O1387     Mg1395   2.156       .  S
O1387      C1422   1.234       .  S
C1388      O1401   1.236       .  S
C1388      O1425   1.271       .  A
C1388      H1427   1.081       .  S
Mg1389     O1418   2.143       .  S
Mg1389     O1433   2.292       .  S
Mg1389     O1429   2.252       .  S
Mg1389     O1400   2.309       .  S
O1390     Mg1432   2.146       .  S
O1390     Mg1415   2.133       .  S
O1390      C1411   1.233       .  S
O1391      C1422   1.268       .  A
O1391     Mg1415   2.296       .  S
C1392      O1394   1.267       .  A
C1392      O1406   1.274       .  A
C1392      C2236   1.482       .  S
O1393      C1421   1.268   1_556  A
O1393     Mg1395   2.301       .  S
O1394     Mg1426   2.239       .  S
Mg1395     O1401   2.139       .  S
Mg1395     O1409   2.254       .  S
Mg1395     O1397   2.292       .  S
C1396      O1434   1.271       .  A
C1396      O1402   1.274   1_554  A
C1396      C1957   1.484       .  S
O1397      C1404   1.273       .  A
H1398      C1411   1.081       .  S
C1399      O1413   1.235       .  S
C1399      O1414   1.269       .  A
C1399      H1424   1.082   1_554  S
O1400      C1423   1.271       .  A
O1401     Mg1415   2.150       .  S
O1402     Mg1432   2.288       .  S
C1403      O1416   1.268       .  A
C1403      O1408   1.270       .  A
C1403      C1996   1.483       .  S
C1404      O1431   1.266       .  A
C1404      C1981   1.483       .  S
Mg1405     O1412   2.142       .  S
Mg1405     O1413   2.156       .  S
Mg1405     O1406   2.298       .  S
Mg1405     O1407   2.295       .  S
Mg1405     O1434   2.256       .  S
O1407      C1411   1.267   1_554  A
O1408     Mg1415   2.264       .  S
O1409      C1428   1.269       .  A
O1410      C1430   1.270       .  A
O1410     Mg1426   2.271       .  S
O1412     Mg1426   2.144       .  S
O1412      C1423   1.235       .  S
O1413     Mg1432   2.135   1_554  S
O1414     Mg1426   2.297       .  S
Mg1415     O1431   2.237       .  S
O1416     Mg1432   2.257       .  S
H1417      C1422   1.082   1_554  S
O1418     Mg1426   2.144       .  S
O1418      C1421   1.233       .  S
H1419      C1421   1.081       .  S
H1420      C1423   1.081       .  S
O1425     Mg1432   2.302       .  S
C1428      O1433   1.275   1_556  A
C1428      C1969   1.490       .  S
O1429      C1430   1.268       .  A
C1430      C2068   1.479       .  S
O1435     Mg1437   2.170   1_556  S
O1435     Mg3783   2.158   1_455  S
O1435      C1470   1.233       .  S
C1436      O1449   1.235       .  S
C1436      O1473   1.269       .  A
C1436      H1475   1.081       .  S
Mg1437     O3806   2.164   1_455  S
Mg1437     O3821   2.294   1_455  S
Mg1437     O3817   2.274   1_455  S
Mg1437     O1448   2.294       .  S
O1438     Mg3820   2.165   1_455  S
O1438     Mg1463   2.158       .  S
O1438      C1459   1.236       .  S
O1439      C1470   1.269       .  A
O1439     Mg1463   2.306       .  S
C1440      O1442   1.278       .  A
C1440      O1454   1.275       .  A
C1440      C2056   1.504       .  S
O1441      C1469   1.272   1_556  A
O1441     Mg1443   2.312       .  S
O1442     Mg1474   2.309       .  S
Mg1443     O3775   2.158       .  S
Mg1443     O1449   2.159       .  S
Mg1443     O1457   2.285       .  S
Mg1443     O3785   2.319       .  S
C1444      O1482   1.271       .  A
C1444      O1450   1.271   1_554  A
C1444      C1921   1.483       .  S
O1445      C1452   1.277       .  A
O1445     Mg3783   2.319   1_455  S
H1446      C1459   1.082       .  S
C1447      O1461   1.234       .  S
C1447      O1462   1.268       .  A
C1447      H1472   1.081   1_554  S
O1448      C1471   1.268       .  A
O1449     Mg3803   2.169       .  S
O1450     Mg3820   2.276   1_455  S
C1451      O1464   1.270       .  A
C1451      O1456   1.277       .  A
C1451      C1933   1.494       .  S
C1452      O1479   1.275       .  A
C1452      C1948   1.492       .  S
Mg1453     O1460   2.144   1_455  S
Mg1453     O3801   2.161   1_455  S
Mg1453     O3794   2.306   1_455  S
Mg1453     O1455   2.305       .  S
Mg1453     O1482   2.268       .  S
O1454     Mg3793   2.306       .  S
O1455      C1459   1.271   1_554  A
O1456     Mg1463   2.322       .  S
O1457      C1476   1.271       .  A
O1458      C1478   1.277       .  A
O1458     Mg1474   2.322       .  S
O1460     Mg3814   2.166       .  S
O1460      C1471   1.234   1_655  S
O1461     Mg3793   2.161       .  S
O1461     Mg1480   2.158   1_554  S
O1462     Mg1474   2.299       .  S
Mg1463     O3789   2.169   1_455  S
Mg1463     O1479   2.289       .  S
O1464     Mg3820   2.257   1_455  S
H1465      C1470   1.081   1_554  S
O1466     Mg3777   2.164       .  S
O1466     Mg1474   2.175       .  S
O1466      C1469   1.236       .  S
H1467      C1469   1.081       .  S
H1468      C1471   1.081       .  S
O1473     Mg1480   2.298       .  S
Mg1474     O3800   2.166       .  S
C1476      O1481   1.275   1_556  A
C1476      C1909   1.501       .  S
O1477      C1478   1.273       .  A
O1477     Mg3777   2.274       .  S
C1478      C2200   1.491       .  S
Mg1480     O3778   2.165       .  S
Mg1480     O3790   2.276       .  S
Mg1480     O3804   2.257       .  S
O1481     Mg3777   2.294       .  S
O1483     Mg1485   2.145       .  S
O1483     Mg1491   2.171       .  S
O1483      C1518   1.234       .  S
C1484      O1497   1.235       .  S
C1484      O1521   1.270       .  A
C1484      H1523   1.081       .  S
Mg1485     O1514   2.162       .  S
Mg1485     O1529   2.280       .  S
Mg1485     O1525   2.274       .  S
Mg1485     O1496   2.293       .  S
O1486     Mg1528   2.151       .  S
O1486     Mg1511   2.143       .  S
O1486      C1507   1.233       .  S
O1487      C1518   1.268       .  A
O1487     Mg1511   2.292       .  S
C1488      O1490   1.273       .  A
C1488      O1502   1.271       .  A
C1488      C1900   1.484       .  S
O1489      C1517   1.267       .  A
O1489     Mg1491   2.292       .  S
O1490     Mg1522   2.270       .  S
Mg1491     O1497   2.153       .  S
Mg1491     O1493   2.307       .  S
C1492      O1530   1.274       .  A
C1492      O1498   1.271       .  A
C1492      C1837   1.490       .  S
O1493      C1500   1.275       .  A
H1494      C1507   1.082       .  S
C1495      O1509   1.234       .  S
C1495      O1510   1.269       .  A
C1495      H1520   1.082       .  S
O1496      C1519   1.269       .  A
O1497     Mg1511   2.158       .  S
O1498     Mg1528   2.289       .  S
C1499      O1512   1.269       .  A
C1499      O1504   1.270       .  A
C1499      C1873   1.474       .  S
C1500      O1527   1.268       .  A
Mg1501     O1508   2.150       .  S
Mg1501     O1509   2.161       .  S
Mg1501     O1502   2.270       .  S
Mg1501     O1503   2.300       .  S
Mg1501     O1530   2.283       .  S
O1503      C1507   1.268       .  A
O1504     Mg1511   2.283       .  S
O1505      C1524   1.274       .  A
O1506      C1526   1.275       .  A
O1506     Mg1522   2.300       .  S
O1508     Mg1522   2.174       .  S
O1508      C1519   1.235       .  S
O1509     Mg1528   2.143       .  S
O1510     Mg1522   2.298       .  S
Mg1511     O1527   2.239       .  S
O1512     Mg1528   2.255       .  S
H1513      C1518   1.082       .  S
O1514     Mg1522   2.142       .  S
O1514      C1517   1.234       .  S
H1515      C1517   1.082       .  S
H1516      C1519   1.081       .  S
O1521     Mg1528   2.305       .  S
C1524      C1852   1.486       .  S
O1525      C1526   1.274       .  A
C1526      C1888   1.490       .  S
C1531      C1993   1.481       .  S
C1531      C1532   1.418       .  A
C1531      C1536   1.400       .  A
C1532      C1945   1.498       .  S
C1532      C1533   1.411       .  A
C1533      H1538   1.084       .  S
C1533      C1534   1.410       .  A
C1534      C1825   1.490       .  S
C1534      C1535   1.416       .  A
C1535      C1876   1.485       .  S
C1535      C1536   1.397       .  A
C1536      H1537   1.085       .  S
C1539      C1936   1.486       .  S
C1539      C1540   1.419       .  A
C1539      C1544   1.405       .  A
C1540      C2032   1.480       .  S
C1540      C1541   1.402       .  A
C1541      H1546   1.085       .  S
C1541      C1542   1.399       .  A
C1542      C1864   1.483       .  S
C1542      C1543   1.412       .  A
C1543      C1813   1.482       .  S
C1543      C1544   1.402       .  A
C1544      H1545   1.085       .  S
O1547     Mg1549   2.158       .  S
O1547     Mg1555   2.151       .  S
O1547      C1582   1.234       .  S
C1548      O1561   1.235       .  S
C1548      O1585   1.270       .  A
C1548      H1587   1.082       .  S
Mg1549     O1578   2.160       .  S
Mg1549     O1593   2.296       .  S
Mg1549     O1589   2.265       .  S
Mg1549     O1560   2.300       .  S
O1550     Mg1592   2.161       .  S
O1550     Mg1575   2.163       .  S
O1550      C1571   1.236       .  S
O1551      C1582   1.269       .  A
O1551     Mg1575   2.300       .  S
C1552      O1554   1.273       .  A
C1552      O1566   1.273       .  A
C1552      C1789   1.486       .  S
O1553      C1581   1.271       .  A
O1553     Mg1555   2.312       .  S
O1554     Mg1586   2.282       .  S
Mg1555     O1561   2.164       .  S
Mg1555     O3909   2.284       .  S
Mg1555     O1557   2.303       .  S
C1556      O1594   1.271       .  A
C1556      O1562   1.275       .  A
C1556      C1753   1.495       .  S
O1557      C1564   1.276       .  A
H1558      C1571   1.081       .  S
C1559      O1573   1.235       .  S
C1559      O1574   1.270       .  A
C1559      H1584   1.081       .  S
O1560      C1583   1.270       .  A
O1561     Mg1575   2.176       .  S
C1563      O1576   1.271       .  A
C1563      O1568   1.277       .  A
C1563      C1780   1.486       .  S
C1564      O1591   1.273       .  A
C1564      C4168   1.500       .  S
Mg1565     O1572   2.152       .  S
Mg1565     O1573   2.147       .  S
Mg1565     O1566   2.304       .  S
Mg1565     O1567   2.305       .  S
O1567      C1571   1.271       .  A
O1568     Mg1575   2.319       .  S
O1569      C1588   1.271       .  A
O1569     Mg3895   2.284   1_455  S
O1570      C1590   1.274       .  A
O1570     Mg1586   2.305       .  S
O1572     Mg1586   2.154       .  S
O1572      C1583   1.235       .  S
O1573     Mg1592   2.151       .  S
O1574     Mg1586   2.306       .  S
Mg1575     O1591   2.286       .  S
O1576     Mg1592   2.252       .  S
H1577      C1582   1.081       .  S
O1578     Mg1586   2.158       .  S
O1578      C1581   1.235       .  S
H1579      C1581   1.081       .  S
H1580      C1583   1.082       .  S
O1585     Mg1592   2.303       .  S
C1588      O3933   1.274   1_455  A
C1588      C1768   1.499       .  S
O1589      C1590   1.271       .  A
C1590      C1801   1.486       .  S
O1593      C3928   1.274       .  A
O1595     Mg1597   2.144       .  S
O1595     Mg1603   2.158       .  S
O1595      C1630   1.235       .  S
C1596      O1609   1.234       .  S
C1596      O1633   1.269       .  A
C1596      H1635   1.081       .  S
Mg1597     O1626   2.168       .  S
Mg1597     O1641   2.289       .  S
Mg1597     O1637   2.264       .  S
Mg1597     O1608   2.297       .  S
O1598     Mg1640   2.159       .  S
O1598     Mg1623   2.147       .  S
O1598      C1619   1.234       .  S
O1599      C1630   1.270       .  A
O1599     Mg1623   2.307       .  S
C1600      O1602   1.271       .  A
C1600      O1614   1.274       .  A
C1600      C4156   1.473       .  S
O1601      C1629   1.269       .  A
O1601     Mg1603   2.295       .  S
O1602     Mg1634   2.258       .  S
Mg1603     O1609   2.145       .  S
Mg1603     O1617   2.252       .  S
Mg1603     O1605   2.285       .  S
C1604      O1642   1.273       .  A
C1604      O3950   1.272       .  A
C1604      C1693   1.486       .  S
O1605      C1612   1.272       .  A
H1606      C1619   1.082       .  S
C1607      O1621   1.234       .  S
C1607      O1622   1.269       .  A
C1607      H1632   1.081       .  S
O1608      C1631   1.268       .  A
O1609     Mg1623   2.146       .  S
O1610      C3944   1.272       .  A
O1610     Mg1640   2.277       .  S
C1611      O1624   1.270       .  A
C1611      O1616   1.273       .  A
C1611      C1744   1.489       .  S
C1612      O1639   1.269       .  A
C1612      C1732   1.480       .  S
Mg1613     O1620   2.158       .  S
Mg1613     O1621   2.162       .  S
Mg1613     O1614   2.284       .  S
Mg1613     O1615   2.301       .  S
Mg1613     O3982   2.290       .  S
O1615      C1619   1.269       .  A
O1616     Mg1623   2.291       .  S
O1617      C1636   1.270       .  A
O1618      C1638   1.274       .  A
O1618     Mg1634   2.297       .  S
O1620     Mg1634   2.170       .  S
O1620      C1631   1.233       .  S
O1621     Mg1640   2.146       .  S
O1622     Mg1634   2.298       .  S
Mg1623     O1639   2.261       .  S
O1624     Mg1640   2.262       .  S
H1625      C1630   1.081       .  S
O1626     Mg1634   2.147       .  S
O1626      C1629   1.235       .  S
H1627      C1629   1.082       .  S
H1628      C1631   1.081       .  S
O1633     Mg1640   2.299       .  S
C1636      O1641   1.272       .  A
C1636      C1705   1.489       .  S
O1637      C1638   1.272       .  A
C1638      C1717   1.487       .  S
O1642     Mg3953   2.290   1_455  S
C1643      C1984   1.475       .  S
C1643      C1644   1.406       .  A
C1643      C1648   1.396       .  A
C1644      C2041   1.476       .  S
C1644      C1645   1.397       .  A
C1645      H1650   1.084       .  S
C1645      C1646   1.405       .  A
C1646      C1777   1.487       .  S
C1646      C1647   1.424       .  A
C1647      C1720   1.484       .  S
C1647      C1648   1.405       .  A
C1648      H1649   1.084       .  S
C1651      C2296   1.482       .  S
C1651      C1652   1.416       .  A
C1651      C1656   1.400   1_455  A
C1652      C2164   1.486       .  S
C1652      C1653   1.402       .  A
C1653      H1658   1.085       .  S
C1653      C3994   1.401   1_455  A
C1654      C1741   1.486       .  S
C1654      C3993   1.401       .  A
C1654      C1655   1.416       .  A
C1655      C1804   1.482       .  S
C1655      C3996   1.402       .  A
C1656      H1657   1.085       .  S
C1656      C3995   1.402       .  A
C1659      C2308   1.486       .  S
C1659      C1660   1.417       .  A
C1659      C1664   1.405       .  A
C1660      C2116   1.478       .  S
C1660      C1661   1.400       .  A
C1661      H1666   1.084       .  S
C1661      C1662   1.398       .  A
C1662      C1729   1.479       .  S
C1662      C1663   1.412       .  A
C1663      C1897   1.480       .  S
C1663      C1664   1.402       .  A
C1664      H1665   1.084       .  S
C1667      C2104   1.485       .  S
C1667      C1668   1.416       .  A
C1667      C1672   1.403   1_565  A
C1668      C2173   1.487       .  S
C1668      C1669   1.406       .  A
C1669      H1674   1.084       .  S
C1670      C1885   1.484       .  S
C1670      C1671   1.415       .  A
C1671      C1792   1.487       .  S
C1672      H1673   1.084       .  S
C1675      C4252   1.495   1_554  S
C1675      C1676   1.413   1_655  A
C1675      C2850   1.416       .  A
C1676      C1960   1.480       .  S
C1677      C2020   1.492       .  S
C1677      C1678   1.415   1_545  A
C1678      C1924   1.493       .  S
C1678      C4019   1.420   1_455  A
C1679      C1972   1.491       .  S
C1679      C4018   1.420       .  A
C1679      C1680   1.422       .  A
C1680      C2845   1.416   1_565  A
C1681      C2281   1.493       .  S
C1681      C1682   1.414       .  A
C1681      C1686   1.416       .  A
C1682      C2149   1.495       .  S
C1682      C1683   1.419       .  A
C1683      C2089   1.482       .  S
C1683      C1684   1.416       .  A
C1684      C2269   1.490       .  S
C1684      C1685   1.412       .  A
C1685      C2140   1.494       .  S
C1685      C1686   1.415       .  A
C1686      C2080   1.478       .  S
C1687      C1696   1.497       .  S
C1687      C1688   1.420       .  A
C1687      C1692   1.425       .  A
C1688      C1849   1.494       .  S
C1688      C1689   1.415       .  A
C1689      C1756   1.504       .  S
C1689      C1690   1.420       .  A
C1690      C1708   1.495       .  S
C1690      C1691   1.427       .  A
C1691      C1840   1.499       .  S
C1691      C1692   1.425       .  A
C1692      C1765   1.501       .  S
C1693      C1694   1.407       .  A
C1693      C1698   1.410       .  A
C1694      H1703   1.084       .  S
C1694      C1695   1.397       .  A
C1695      C1696   1.415       .  A
C1695      S1699   1.810       .  S
C1696      C1697   1.410       .  A
C1697      H1704   1.083       .  S
C1697      C1698   1.401       .  A
C1698      S1700   1.798       .  S
S1699      H1702   1.399       .  S
S1700      H1701   1.407       .  S
C1705      C1706   1.408       .  A
C1705      C1710   1.417       .  A
C1706      H1715   1.084       .  S
C1706      C1707   1.399       .  A
C1707      C1708   1.414       .  A
C1707      S1711   1.799       .  S
C1708      C1709   1.404       .  A
C1709      H1716   1.084       .  S
C1709      C1710   1.396       .  A
C1710      S1712   1.801       .  S
S1711      H1714   1.395       .  S
S1712      H1713   1.408       .  S
C1717      C1718   1.408       .  A
C1717      C1722   1.415       .  A
C1718      H1727   1.081       .  S
C1718      C1719   1.400       .  A
C1719      C1720   1.411       .  A
C1719      S1723   1.804       .  S
C1720      C1721   1.405       .  A
C1721      H1728   1.084       .  S
C1721      C1722   1.399       .  A
C1722      S1724   1.803       .  S
S1723      H1726   1.405       .  S
S1724      H1725   1.408       .  S
C1729      C1730   1.404       .  A
C1729      C1734   1.410       .  A
C1730      H1739   1.084       .  S
C1730      C1731   1.399       .  A
C1731      C1732   1.414       .  A
C1731      S1735   1.802       .  S
C1732      C1733   1.408       .  A
C1733      H1740   1.084       .  S
C1733      C1734   1.395       .  A
C1734      S1736   1.807       .  S
S1735      H1738   1.407       .  S
S1736      H1737   1.404       .  S
C1741      C1742   1.402       .  A
C1741      C1746   1.413       .  A
C1742      H4091   1.084       .  S
C1742      C1743   1.400       .  A
C1743      C1744   1.420       .  A
C1743      S1747   1.802       .  S
C1744      C1745   1.407       .  A
C1745      H1752   1.084       .  S
C1745      C1746   1.399       .  A
C1746      S1748   1.805       .  S
S1747      H1750   1.408       .  S
S1748      H1749   1.406       .  S
H1751      C4082   1.084       .  S
C1753      C1754   1.407       .  A
C1753      C1758   1.420       .  A
C1754      H1763   1.083       .  S
C1754      C1755   1.401       .  A
C1755      C1756   1.414       .  A
C1755      S1759   1.802       .  S
C1756      C1757   1.404       .  A
C1757      H1764   1.083       .  S
C1757      C1758   1.401       .  A
C1758      S1760   1.801       .  S
S1759      H1762   1.403       .  S
S1760      H1761   1.408       .  S
C1765      C1766   1.404       .  A
C1765      C1770   1.418       .  A
C1766      H1775   1.084       .  S
C1766      C1767   1.402       .  A
C1767      C1768   1.420       .  A
C1767      S1771   1.798       .  S
C1768      C1769   1.408       .  A
C1769      H1776   1.083       .  S
C1769      C1770   1.400       .  A
C1770      S1772   1.805       .  S
S1771      H1774   1.408       .  S
S1772      H1773   1.393       .  S
C1777      C1778   1.405       .  A
C1777      C1782   1.413       .  A
C1778      H1787   1.083       .  S
C1778      C1779   1.403       .  A
C1779      S1783   1.808       .  S
C1780      C1781   1.408       .  A
C1781      H1788   1.084       .  S
S1783      H1786   1.406       .  S
C1789      C1790   1.406       .  A
C1789      C1794   1.419       .  A
C1790      H1799   1.084       .  S
C1790      C1791   1.405       .  A
C1791      C1792   1.415       .  A
C1791      S1795   1.804       .  S
C1792      C1793   1.400       .  A
C1793      C1794   1.397       .  A
S1795      H1798   1.405       .  S
S1796      H1797   1.407   1_565  S
C1801      C1802   1.406       .  A
C1801      C1806   1.419       .  A
C1802      H4151   1.083       .  S
C1802      C4143   1.401       .  A
C1803      C4142   1.401   1_455  A
C1803      C4144   1.413   1_455  A
C1803      S1807   1.805       .  S
C1804      C4143   1.413       .  A
C1804      C1805   1.399       .  A
C1805      H1812   1.084       .  S
C1805      C1806   1.398       .  A
C1806      S1808   1.800       .  S
S1807      H1810   1.406       .  S
S1808      H1809   1.408       .  S
H1811      C4142   1.083   1_455  S
C1813      C1814   1.407       .  A
C1813      C1818   1.413       .  A
C1814      H1823   1.084       .  S
C1814      C1815   1.400       .  A
C1815      C1816   1.410       .  A
C1815      S1819   1.802       .  S
C1816      C3940   1.473   1_455  S
C1816      C1817   1.405       .  A
C1817      H4164   1.085       .  S
C1817      C1818   1.395       .  A
C1818      S1820   1.809       .  S
S1819      H1822   1.407       .  S
S1820      H1821   1.403       .  S
H1824      C4157   1.085       .  S
C1825      C1826   1.403       .  A
C1825      C1830   1.410       .  A
C1826      H1835   1.084       .  S
C1826      C4167   1.404       .  A
C1827      C4166   1.404       .  A
C1827      C4168   1.422       .  A
C1827      S1831   1.802       .  S
C1828      C3904   1.500   1_455  S
C1828      C4167   1.422       .  A
C1828      C1829   1.411       .  A
C1829      H1836   1.081       .  S
C1829      C1830   1.401       .  A
C1830      S1832   1.802       .  S
S1831      H1834   1.408       .  S
S1832      H1833   1.406       .  S
C1837      C1838   1.403       .  A
C1837      C1842   1.419       .  A
C1838      H1847   1.084       .  S
C1838      C1839   1.403       .  A
C1839      C1840   1.421       .  A
C1839      S1843   1.801       .  S
C1840      C1841   1.402       .  A
C1841      H1848   1.084       .  S
C1841      C1842   1.398       .  A
C1842      S1844   1.801       .  S
S1843      H1846   1.394       .  S
S1844      H1845   1.408       .  S
C1849      C1850   1.403       .  A
C1849      C1854   1.415       .  A
C1850      H1859   1.081       .  S
C1850      C1851   1.393       .  A
C1851      C1852   1.415       .  A
C1851      S1855   1.804       .  S
C1852      C1853   1.408       .  A
C1853      H1860   1.084       .  S
C1853      C1854   1.402       .  A
C1854      S1856   1.805       .  S
S1855      H1858   1.408       .  S
S1856      H1857   1.404       .  S
C1861      C1862   1.405       .  A
C1862      H1871   1.084       .  S
C1862      C1863   1.399       .  A
C1863      C1864   1.414       .  A
C1863      S1867   1.801       .  S
C1864      C1865   1.398       .  A
C1865      H1872   1.084   1_565  S
C1866      S1868   1.802       .  S
S1867      H1870   1.406       .  S
S1868      H1869   1.408       .  S
C1873      C1874   1.400       .  A
C1873      C1878   1.415       .  A
C1874      H1883   1.084       .  S
C1874      C1875   1.399       .  A
C1875      C1876   1.418       .  A
C1875      S1879   1.804       .  S
C1876      C1877   1.400       .  A
C1877      H1884   1.083       .  S
C1877      C1878   1.395       .  A
C1878      S1880   1.801       .  S
S1879      H1882   1.404       .  S
S1880      H1881   1.400       .  S
C1885      C1886   1.401       .  A
C1885      C1890   1.412       .  A
C1886      H1895   1.083       .  S
C1886      C1887   1.401       .  A
C1887      C1888   1.418       .  A
C1887      S1891   1.803       .  S
C1888      C1889   1.408       .  A
C1889      H1896   1.082       .  S
C1889      C1890   1.400       .  A
S1891      H1894   1.407       .  S
S1892      H1893   1.405       .  S
C1897      C1898   1.401       .  A
C1897      C1902   1.411       .  A
C1898      H1907   1.083       .  S
C1898      C1899   1.393       .  A
C1899      C1900   1.418       .  A
C1899      S1903   1.805       .  S
C1900      C1901   1.409       .  A
C1901      H1908   1.084       .  S
C1901      C1902   1.401       .  A
C1902      S1904   1.804       .  S
S1903      H1906   1.408       .  S
S1904      H1905   1.405       .  S
C1909      C1910   1.410   1_556  A
C1909      C4254   1.421       .  A
C1910      H1919   1.080       .  S
C1910      C1911   1.398       .  A
C1911      C1912   1.411   1_554  A
C1911      S1915   1.805       .  S
C1912      C4015   1.495   1_556  S
C1912      C4253   1.403       .  A
C1913      H1920   1.083   1_655  S
C1913      C4252   1.403       .  A
C1913      C1914   1.402       .  A
C1914      C4249   1.421       .  A
C1914      S1916   1.798   1_655  S
S1915      H1918   1.400       .  S
S1916      H1917   1.408       .  S
C1921      C1922   1.409   1_554  A
C1921      C1926   1.411       .  A
C1922      H4271   1.084   1_455  S
C1922      C4263   1.398   1_455  A
C1923      C4262   1.398       .  A
C1923      C4264   1.413   1_556  A
C1923      S1927   1.807       .  S
C1924      C4263   1.413   1_454  A
C1924      C1925   1.405       .  A
C1925      H1932   1.082       .  S
C1925      C1926   1.396       .  A
C1926      S1928   1.801       .  S
S1927      H1930   1.403       .  S
S1928      H1929   1.408       .  S
H1931      C4262   1.084       .  S
C1933      C1934   1.412       .  A
C1933      C1938   1.416       .  A
C1934      H1943   1.084       .  S
C1934      C1935   1.403       .  A
C1935      C1936   1.411       .  A
C1935      S1939   1.805       .  S
C1936      C1937   1.404       .  A
C1937      H1944   1.084       .  S
C1937      C1938   1.400       .  A
C1938      S1940   1.802       .  S
S1939      H1942   1.405       .  S
S1940      H1941   1.407       .  S
C1945      C1946   1.402       .  A
C1945      C1950   1.416       .  A
C1946      H1955   1.084       .  S
C1946      C1947   1.402       .  A
C1947      C1948   1.419       .  A
C1947      S4291   1.803       .  S
C1948      C1949   1.404       .  A
C1949      H1956   1.082       .  S
C1949      C1950   1.409       .  A
C1950      S1952   1.803       .  S
S1951      C4287   1.803       .  S
S1951      H1954   1.407       .  S
S1952      H1953   1.407       .  S
C1957      C1958   1.409   1_554  A
C1957      C1962   1.415       .  A
C1958      H1967   1.083       .  S
C1958      C1959   1.397       .  A
C1959      C1960   1.410   1_556  A
C1959      S1963   1.809       .  S
C1960      C1961   1.401       .  A
C1961      H1968   1.080       .  S
C1961      C1962   1.395       .  A
C1962      S1964   1.802       .  S
S1963      H1966   1.402       .  S
S1964      H1965   1.407       .  S
C1969      C1970   1.407   1_556  A
C1969      C1974   1.419       .  A
C1970      H1979   1.084       .  S
C1970      C1971   1.397       .  A
C1971      C1972   1.417       .  A
C1971      S1975   1.809       .  S
C1972      C1973   1.403   1_554  A
C1973      H1980   1.084       .  S
C1973      C1974   1.398       .  A
C1974      S1976   1.802       .  S
S1975      H1978   1.398       .  S
S1976      H1977   1.407       .  S
C1981      C1982   1.408       .  A
C1981      C1986   1.417       .  A
C1982      H1991   1.084       .  S
C1982      C1983   1.396       .  A
C1983      C1984   1.410       .  A
C1983      S1987   1.809       .  S
C1984      C1985   1.401       .  A
C1985      H1992   1.084       .  S
C1985      C1986   1.397       .  A
C1986      S1988   1.803       .  S
S1987      H1990   1.401       .  S
S1988      H1989   1.408       .  S
C1993      C1994   1.403       .  A
C1993      C1998   1.415       .  A
C1994      H2003   1.084       .  S
C1994      C1995   1.398       .  A
C1995      C1996   1.417       .  A
C1995      S1999   1.801       .  S
C1996      C1997   1.406       .  A
C1997      H2004   1.084       .  S
C1997      C1998   1.394       .  A
C1998      S2000   1.807       .  S
S1999      H2002   1.408       .  S
S2000      H2001   1.401       .  S
C2005      C2006   1.406   1_556  A
C2005      C2010   1.412       .  A
C2007      S2011   1.802       .  S
C2008      C2009   1.407       .  A
C2009      H2016   1.084       .  S
C2009      C2010   1.401       .  A
C2010      S2012   1.801       .  S
S2011      H2014   1.395       .  S
S2012      H2013   1.407       .  S
C2017      C2022   1.421   1_554  A
C2018      H2027   1.083       .  S
C2018      C2019   1.402       .  A
C2019      S2023   1.806       .  S
C2020      C2021   1.401   1_544  A
C2021      H2028   1.083       .  S
C2021      C2022   1.396       .  A
C2022      S2024   1.805       .  S
S2023      H2026   1.403       .  S
S2024      H2025   1.408       .  S
C2029      C2030   1.409       .  A
C2029      C2034   1.415       .  A
C2030      H2039   1.084       .  S
C2030      C2031   1.399       .  A
C2031      C2032   1.410       .  A
C2031      S2035   1.806       .  S
C2032      C2033   1.405       .  A
C2033      H2040   1.084       .  S
C2033      C2034   1.401       .  A
C2034      S2036   1.803   1_565  S
S2035      H2038   1.404       .  S
C2041      C2042   1.401       .  A
C2041      C2046   1.410       .  A
C2042      H2051   1.084       .  S
C2042      C2043   1.397       .  A
C2043      C2044   1.416       .  A
C2043      S2047   1.803       .  S
C2044      C2045   1.408       .  A
C2045      H2052   1.084       .  S
C2045      C2046   1.396       .  A
C2046      S2048   1.806       .  S
S2047      H2050   1.408       .  S
S2048      H2049   1.401       .  S
C2053      C2054   1.403       .  A
C2053      C2058   1.411       .  A
C2054      H2063   1.082       .  S
C2054      C2055   1.408       .  A
C2055      C2056   1.423       .  A
C2055      S4399   1.811       .  S
C2056      C2057   1.411       .  A
C2057      H2064   1.082       .  S
C2057      C2058   1.409       .  A
C2058      S2060   1.807       .  S
S2059      C4395   1.811       .  S
S2059      H2062   1.407       .  S
S2060      H2061   1.407       .  S
C2065      C2066   1.402       .  A
C2065      C2070   1.407       .  A
C2066      H2075   1.084       .  S
C2066      C2067   1.397       .  A
C2067      C2068   1.415       .  A
C2067      S2071   1.802       .  S
C2068      C2069   1.409       .  A
C2069      H2076   1.084       .  S
C2069      C2070   1.393       .  A
C2070      S2072   1.806       .  S
S2071      H2074   1.407       .  S
S2072      H2073   1.403       .  S
C2077      C2078   1.409       .  A
C2077      C2082   1.420       .  A
C2078      H2087   1.084       .  S
C2078      C2079   1.398       .  A
C2079      C2080   1.412       .  A
C2079      S2083   1.808       .  S
C2080      C2081   1.398       .  A
C2081      H2088   1.083       .  S
C2081      C2082   1.394       .  A
C2082      S2084   1.799       .  S
S2083      H2086   1.399       .  S
S2084      H2085   1.408       .  S
C2089      C2090   1.401       .  A
C2089      C2094   1.411       .  A
C2090      H2099   1.083       .  S
C2090      C2091   1.397       .  A
C2091      C2092   1.414       .  A
C2091      S2095   1.798       .  S
C2092      C2093   1.411       .  A
C2093      H2100   1.084       .  S
C2093      C2094   1.398       .  A
C2094      S2096   1.807       .  S
S2095      H2098   1.408       .  S
S2096      H2097   1.400       .  S
C2101      C2102   1.410       .  A
C2101      C2106   1.417   1_565  A
C2102      H2111   1.083       .  S
C2102      C2103   1.397       .  A
C2103      C2104   1.410       .  A
C2103      S2107   1.806       .  S
C2104      C2105   1.404   1_565  A
C2105      C2106   1.404       .  A
S2107      H2110   1.405       .  S
S2108      H2109   1.407       .  S
C2113      C2114   1.405       .  A
C2113      C2118   1.416       .  A
C2114      H2123   1.084       .  S
C2114      C2115   1.399       .  A
C2115      C2116   1.413       .  A
C2115      S2119   1.802       .  S
C2116      C2117   1.398       .  A
C2117      H2124   1.084       .  S
C2117      C2118   1.393       .  A
C2118      S2120   1.800       .  S
S2119      H2122   1.406       .  S
S2120      H2121   1.407       .  S
C2125      C2126   1.402       .  A
C2125      C2130   1.419       .  A
C2126      H2135   1.084       .  S
C2126      C2127   1.398       .  A
C2127      C2128   1.414       .  A
C2127      S2131   1.804       .  S
C2128      C2129   1.399       .  A
C2129      H2136   1.084       .  S
C2129      C2130   1.396       .  A
C2130      S2132   1.804       .  S
S2131      H2134   1.406       .  S
S2132      H2133   1.408       .  S
C2137      C2138   1.411       .  A
C2137      C2142   1.420       .  A
C2138      H2147   1.084       .  S
C2138      C2139   1.400       .  A
C2139      C2140   1.413       .  A
C2139      S2143   1.808       .  S
C2140      C2141   1.402       .  A
C2141      H2148   1.083       .  S
C2141      C2142   1.400       .  A
C2142      S2144   1.801       .  S
S2143      H2146   1.399       .  S
S2144      H2145   1.408       .  S
C2149      C2150   1.400       .  A
C2149      C2154   1.419       .  A
C2150      H2159   1.082       .  S
C2150      C2151   1.394       .  A
C2151      C2152   1.417       .  A
C2151      S2155   1.802       .  S
C2152      C2153   1.405       .  A
C2153      H2160   1.084       .  S
C2153      C2154   1.403       .  A
C2154      S2156   1.807       .  S
S2155      H2158   1.408       .  S
S2156      H2157   1.398       .  S
C2161      C2162   1.406       .  A
C2161      C2166   1.419       .  A
C2162      H2171   1.084       .  S
C2162      C2163   1.399       .  A
C2163      C2164   1.414       .  A
C2163      S2167   1.804       .  S
C2164      C2165   1.401       .  A
C2165      H2172   1.082   1_455  S
C2165      C2166   1.397       .  A
C2166      S2168   1.801   1_455  S
S2167      H2170   1.407       .  S
S2168      H2169   1.407   1_655  S
C2173      C2174   1.402       .  A
C2173      C2178   1.411       .  A
C2174      H2183   1.083       .  S
C2174      C2175   1.402       .  A
C2175      C2176   1.422       .  A
C2175      S2179   1.802       .  S
C2176      C2177   1.411       .  A
C2177      H2184   1.083       .  S
C2177      C2178   1.400       .  A
S2179      H2182   1.408       .  S
S2180      H2181   1.405       .  S
C2185      C2186   1.404       .  A
C2185      C2190   1.415       .  A
C2186      H2195   1.084       .  S
C2186      C2187   1.401       .  A
C2187      C2188   1.420       .  A
C2187      S2191   1.804       .  S
C2188      C3580   1.493       .  S
C2188      C2189   1.407       .  A
C2189      H4536   1.084       .  S
C2189      C2190   1.404       .  A
C2190      S2192   1.803       .  S
S2191      H2194   1.408       .  S
S2192      H2193   1.406       .  S
H2196      C4529   1.084   1_455  S
C2197      C2198   1.401       .  A
C2197      C2202   1.419       .  A
C2198      H2207   1.084       .  S
C2198      C2199   1.399       .  A
C2199      C2200   1.419       .  A
C2199      S2203   1.800       .  S
C2200      C2201   1.405       .  A
C2201      H2208   1.084       .  S
C2201      C2202   1.405       .  A
C2202      S2204   1.806       .  S
S2203      H2206   1.407       .  S
S2204      H2205   1.404       .  S
C2209      C2210   1.405       .  A
C2209      C2214   1.410       .  A
C2210      H2219   1.084       .  S
C2210      C2211   1.403       .  A
C2211      C2212   1.417       .  A
C2212      C2213   1.410       .  A
C2213      H2220   1.083       .  S
C2213      C2214   1.400       .  A
C2214      S2216   1.802       .  S
S2215      H2218   1.407       .  S
S2216      H2217   1.406       .  S
C2221      C2222   1.407       .  A
C2221      C2226   1.412       .  A
C2222      C2223   1.397       .  A
C2223      C2224   1.413       .  A
C2223      S2227   1.808       .  S
C2224      C2225   1.407       .  A
C2225      H2232   1.083       .  S
C2225      C2226   1.398       .  A
C2226      S2228   1.803       .  S
S2227      H2230   1.403       .  S
S2228      H2229   1.407       .  S
C2233      C2234   1.402       .  A
C2233      C2238   1.412       .  A
C2234      H2243   1.084       .  S
C2234      C2235   1.396       .  A
C2235      C2236   1.415       .  A
C2235      S2239   1.803       .  S
C2236      C2237   1.408       .  A
C2237      H2244   1.084       .  S
C2237      C2238   1.398       .  A
C2238      S2240   1.808       .  S
S2239      H2242   1.408       .  S
S2240      H2241   1.401       .  S
C2245      C2246   1.400       .  A
C2245      C2250   1.408       .  A
C2246      H2255   1.083       .  S
C2246      C2247   1.403       .  A
C2247      C2248   1.422       .  A
C2247      S2251   1.811       .  S
C2248      C2249   1.409       .  A
C2249      H2256   1.083       .  S
C2249      C2250   1.396       .  A
C2250      S2252   1.804       .  S
S2251      H2254   1.406       .  S
S2252      H2253   1.404       .  S
C2257      C2258   1.405       .  A
C2257      C2262   1.410       .  A
C2258      H2267   1.084       .  S
C2259      C2260   1.416   1_565  A
C2259      S2263   1.803       .  S
C2261      H2268   1.084       .  S
C2261      C2262   1.398       .  A
C2262      S2264   1.802       .  S
S2263      H2266   1.408       .  S
S2264      H2265   1.406       .  S
C2269      C2270   1.397       .  A
C2269      C2274   1.416       .  A
C2270      H2279   1.081       .  S
C2270      C2271   1.394       .  A
C2271      C2272   1.419       .  A
C2271      S2275   1.803       .  S
C2272      C2273   1.407       .  A
C2273      H2280   1.084       .  S
C2273      C2274   1.405       .  A
C2274      S2276   1.807       .  S
S2275      H2278   1.408       .  S
S2276      H2277   1.402       .  S
C2281      C2282   1.397       .  A
C2281      C2286   1.413       .  A
C2282      H2291   1.079       .  S
C2282      C2283   1.399       .  A
C2283      C2284   1.423       .  A
C2283      S2287   1.798       .  S
C2284      C2285   1.411       .  A
C2285      H2292   1.083       .  S
C2285      C2286   1.403       .  A
C2286      S2288   1.807       .  S
S2287      H2290   1.408       .  S
S2288      H2289   1.403       .  S
C2293      C2294   1.407   1_455  A
C2293      C2298   1.425       .  A
C2294      H2303   1.084       .  S
C2294      C2295   1.404       .  A
C2295      C2296   1.414   1_655  A
C2295      S4639   1.806       .  S
C2296      C2297   1.396       .  A
C2297      H2304   1.085       .  S
C2297      C2298   1.397       .  A
C2298      S2300   1.800       .  S
S2299      C4635   1.806       .  S
S2299      H2302   1.404       .  S
S2300      H2301   1.407       .  S
C2305      C2306   1.406       .  A
C2305      C2310   1.413       .  A
C2306      H2315   1.081       .  S
C2306      C2307   1.399       .  A
C2307      C2308   1.413       .  A
C2307      S2311   1.807       .  S
C2308      C2309   1.405       .  A
C2309      H2316   1.083       .  S
C2309      C2310   1.396       .  A
C2310      S2312   1.804       .  S
S2311      H2314   1.404       .  S
S2312      H2313   1.408       .  S
C2317      C2318   1.400       .  A
C2317      C2322   1.415       .  A
C2318      H2327   1.084       .  S
C2318      C2319   1.398       .  A
C2319      C2320   1.417       .  A
C2319      S4663   1.802       .  S
C2320      C3528   1.479       .  S
C2320      C2321   1.403       .  A
C2321      H2328   1.084       .  S
C2321      C2322   1.400       .  A
C2322      S2324   1.801       .  S
S2323      C4659   1.802       .  S
S2323      H2326   1.407   1_655  S
S2324      H2325   1.406       .  S
C2329      C2330   1.402       .  A
C2329      C2334   1.418       .  A
C2330      H2339   1.084       .  S
C2330      C2331   1.400       .  A
C2331      C2332   1.418       .  A
C2331      S2335   1.803       .  S
C2332      C2333   1.404       .  A
C2333      H2340   1.084       .  S
C2333      C2334   1.402       .  A
C2334      S2336   1.807       .  S
S2335      H2338   1.407       .  S
S2336      H2337   1.403       .  S
O2341     Mg2343   2.167       .  S
O2341     Mg2349   2.159       .  S
O2341      C2376   1.235       .  S
C2342      O2355   1.235       .  S
C2342      O2379   1.270       .  A
C2342      H2381   1.080       .  S
Mg2343     O2372   2.152       .  S
Mg2343     O2387   2.326       .  S
Mg2343     O2383   2.300       .  S
Mg2343     O2354   2.311       .  S
O2344     Mg2386   2.152       .  S
O2344     Mg2369   2.142       .  S
O2344      C2365   1.234       .  S
O2345      C2376   1.271       .  A
O2345     Mg2369   2.310       .  S
C2346      O2348   1.270       .  A
C2346      O2360   1.270       .  A
C2346      C3475   1.481       .  S
O2347      C2375   1.269       .  A
O2347     Mg2349   2.299       .  S
O2348     Mg2380   2.263       .  S
Mg2349     O2355   2.164       .  S
Mg2349     O2351   2.308       .  S
C2350      O2388   1.271       .  A
C2350      O2356   1.271       .  A
C2350      C3442   1.488       .  S
O2351      C2358   1.275       .  A
H2352      C2365   1.083       .  S
C2353      O2367   1.235       .  S
C2353      O2368   1.269       .  A
C2353      H2378   1.081       .  S
O2354      C2377   1.271       .  A
O2355     Mg2369   2.159       .  S
O2356     Mg2386   2.295       .  S
C2357      O2370   1.269       .  A
C2357      O2362   1.273       .  A
C2357      C3502   1.485       .  S
C2358      O2385   1.268       .  A
Mg2359     O2366   2.163       .  S
Mg2359     O2367   2.144       .  S
Mg2359     O2360   2.278       .  S
Mg2359     O2361   2.310       .  S
Mg2359     O2388   2.280       .  S
O2361      C2365   1.270       .  A
O2362     Mg2369   2.309       .  S
O2363      C2382   1.271       .  A
O2364      C2384   1.270       .  A
O2364     Mg2380   2.285       .  S
O2366     Mg2380   2.164       .  S
O2366      C2377   1.235       .  S
O2367     Mg2386   2.146       .  S
O2368     Mg2380   2.301       .  S
Mg2369     O2385   2.244       .  S
O2370     Mg2386   2.259       .  S
H2371      C2376   1.081       .  S
O2372     Mg2380   2.151       .  S
O2372      C2375   1.234       .  S
H2373      C2375   1.082       .  S
H2374      C2377   1.081       .  S
O2379     Mg2386   2.303       .  S
C2382      C3454   1.502       .  S
O2383      C2384   1.276       .  A
C2384      C3463   1.496       .  S
C2389      C3427   1.484       .  S
C2389      C2390   1.423       .  A
C2389      C2394   1.404       .  A
C2390      C3499   1.488       .  S
C2390      C2391   1.406       .  A
C2391      H2396   1.084       .  S
C2391      C2392   1.400       .  A
C2392      C3403   1.477       .  S
C2392      C2393   1.408       .  A
C2393      C3415   1.479       .  S
C2393      C2394   1.396       .  A
C2394      H2395   1.084       .  S
C2397      C3394   1.487       .  S
C2397      C2398   1.414       .  A
C2397      C2402   1.402       .  A
C2398      C3487   1.487       .  S
C2398      C2399   1.403       .  A
C2399      H2404   1.085       .  S
C2399      C2400   1.408       .  A
C2400      C3367   1.493       .  S
C2400      C2401   1.422       .  A
C2401      C3379   1.487       .  S
C2401      C2402   1.404       .  A
C2402      H2403   1.085       .  S
O2405     Mg2407   2.140       .  S
O2405     Mg2413   2.147       .  S
O2405      C2440   1.234       .  S
C2406      O2419   1.235       .  S
C2406      O2443   1.269       .  A
C2406      H2445   1.082       .  S
Mg2407     O2436   2.164       .  S
Mg2407     O3621   2.294       .  S
Mg2407     O2447   2.242       .  S
Mg2407     O2418   2.298       .  S
O2408     Mg2450   2.158       .  S
O2408     Mg2433   2.152       .  S
O2408      C2429   1.235       .  S
O2409      C2440   1.268       .  A
O2409     Mg2433   2.296       .  S
C2410      O2412   1.276       .  A
C2410      O2424   1.272       .  A
O2411      C2439   1.272       .  A
O2411     Mg2413   2.309       .  S
O2412     Mg2444   2.300       .  S
Mg2413     O2419   2.149       .  S
Mg2413     O3597   2.278       .  S
Mg2413     O2415   2.308       .  S
C2414      O2452   1.270       .  A
C2414      C3322   1.486       .  S
O2415      C2422   1.277       .  A
H2416      C2429   1.081       .  S
C2417      O2431   1.233       .  S
C2417      O2432   1.268       .  A
C2417      H2442   1.082       .  S
O2418      C2441   1.269       .  A
O2419     Mg2433   2.160       .  S
O2420     Mg2450   2.300       .  S
C2421      O2434   1.271       .  A
C2421      O2426   1.275       .  A
C2421      C3331   1.487       .  S
C2422      O2449   1.272       .  A
C2422      C3346   1.499       .  S
Mg2423     O2430   2.153       .  S
Mg2423     O2431   2.152       .  S
Mg2423     O2424   2.282       .  S
Mg2423     O2425   2.304       .  S
O2425      C2429   1.270       .  A
O2426     Mg2433   2.293       .  S
O2427      C2446   1.271       .  A
O2427     Mg3583   2.278   1_545  S
O2428      C2448   1.276       .  A
O2428     Mg2444   2.313       .  S
O2430     Mg2444   2.173       .  S
O2430      C2441   1.235       .  S
O2431     Mg2450   2.156       .  S
O2432     Mg2444   2.303       .  S
Mg2433     O2449   2.273       .  S
O2434     Mg2450   2.265       .  S
H2435      C2440   1.081       .  S
O2436     Mg2444   2.165       .  S
O2436      C2439   1.236       .  S
H2437      C2439   1.081       .  S
H2438      C2441   1.081       .  S
O2443     Mg2450   2.298       .  S
C2446      O2451   1.274       .  A
C2446      C3307   1.499       .  S
O2447      C2448   1.270       .  A
C2448      C3430   1.488       .  S
O2451     Mg3577   2.294   1_545  S
O2453     Mg2455   2.146       .  S
O2453     Mg2461   2.156       .  S
O2453      C2488   1.236       .  S
C2454      O2467   1.236       .  S
C2454      O2491   1.272       .  A
C2454      H2493   1.081       .  S
Mg2455     O2484   2.139       .  S
Mg2455     O2499   2.281       .  S
Mg2455     O2495   2.256       .  S
Mg2455     O2466   2.304       .  S
O2456     Mg2498   2.145       .  S
O2456     Mg2481   2.137       .  S
O2456      C2477   1.233       .  S
O2457      C2488   1.271       .  A
O2457     Mg2481   2.308       .  S
C2458      O2460   1.268       .  A
C2458      O2472   1.274       .  A
C2458      C4561   1.480       .  S
O2459      C2487   1.268       .  A
O2459     Mg2461   2.300       .  S
O2460     Mg2492   2.233       .  S
Mg2461     O2467   2.159       .  S
Mg2461     O2475   2.278       .  S
Mg2461     O2463   2.296       .  S
C2462      O2500   1.272       .  A
C2462      O3638   1.273       .  A
C2462      C3247   1.489       .  S
O2463      C2470   1.273       .  A
H2464      C2477   1.082       .  S
C2465      O2479   1.235       .  S
C2465      O2480   1.269       .  A
C2465      H2490   1.081       .  S
O2466      C2489   1.270       .  A
O2467     Mg2481   2.146       .  S
O2468      C3632   1.273       .  A
O2468     Mg2498   2.296       .  S
C2469      O2482   1.272       .  A
C2469      O2474   1.273       .  A
C2469      C3271   1.492       .  S
C2470      O2497   1.267       .  A
C2470      C3283   1.476       .  S
Mg2471     O2478   2.139       .  S
Mg2471     O2479   2.167       .  S
Mg2471     O2472   2.305       .  S
Mg2471     O2473   2.297       .  S
Mg2471     O3670   2.247       .  S
O2473      C2477   1.268       .  A
O2474     Mg2481   2.292       .  S
O2475      C2494   1.272       .  A
O2476      C2496   1.269       .  A
O2476     Mg2492   2.280       .  S
O2478     Mg2492   2.152       .  S
O2478      C2489   1.235       .  S
O2479     Mg2498   2.146       .  S
O2480     Mg2492   2.293       .  S
Mg2481     O2497   2.237       .  S
O2482     Mg2498   2.285       .  S
H2483      C2488   1.082       .  S
O2484     Mg2492   2.134       .  S
O2484      C2487   1.233       .  S
H2485      C2487   1.082       .  S
H2486      C2489   1.081       .  S
O2491     Mg2498   2.311       .  S
C2494      O2499   1.272       .  A
C2494      C3262   1.490       .  S
O2495      C2496   1.269       .  A
C2496      C3295   1.475       .  S
O2500     Mg3641   2.247   1_545  S
C2501      C3298   1.479       .  S
C2501      C2502   1.417       .  A
C2501      C2506   1.393       .  A
C2502      C3355   1.495       .  S
C2502      C2503   1.416       .  A
C2503      H2508   1.083       .  S
C2503      C2504   1.414       .  A
C2504      C3223   1.498       .  S
C2504      C2505   1.413       .  A
C2505      C3235   1.469       .  S
C2505      C2506   1.392       .  A
C2506      H2507   1.085       .  S
O2509     Mg2511   2.142   1_554  S
O2509     Mg3687   2.168       .  S
O2509      C2544   1.234       .  S
C2510      O2523   1.234       .  S
C2510      O2547   1.269       .  A
C2510      H2549   1.081       .  S
Mg2511     O3710   2.160   1_545  S
Mg2511     O3725   2.273   1_545  S
Mg2511     O3721   2.265   1_545  S
Mg2511     O2522   2.301       .  S
O2512     Mg3724   2.155   1_545  S
O2512     Mg2537   2.143       .  S
O2512      C2533   1.236       .  S
O2513      C2544   1.269       .  A
O2513     Mg2537   2.298       .  S
C2514      O2516   1.268       .  A
C2514      O2528   1.274       .  A
C2514      C3214   1.484       .  S
O2515      C2543   1.268   1_554  A
O2515     Mg2517   2.293       .  S
O2516     Mg2548   2.244       .  S
Mg2517     O3679   2.168       .  S
Mg2517     O2523   2.157       .  S
Mg2517     O2531   2.285       .  S
Mg2517     O3689   2.304       .  S
C2518      O2556   1.271   1_545  A
C2518      O2524   1.272   1_556  A
C2518      C3175   1.482       .  S
O2519      C2526   1.276       .  A
O2519     Mg3687   2.304       .  S
H2520      C2533   1.082       .  S
C2521      O2535   1.235       .  S
C2521      O2536   1.270       .  A
C2521      H2546   1.080   1_556  S
O2522      C2545   1.269       .  A
O2523     Mg3707   2.157       .  S
O2524     Mg3724   2.281   1_545  S
C2525      O2538   1.271       .  A
C2525      O2530   1.274       .  A
C2525      C3382   1.491       .  S
C2526      O2553   1.267       .  A
C2526      C3418   1.491       .  S
Mg2527     O2534   2.154       .  S
Mg2527     O3705   2.144   1_545  S
Mg2527     O3698   2.295   1_545  S
Mg2527     O2529   2.308       .  S
Mg2527     O2556   2.273   1_545  S
O2528     Mg3697   2.295       .  S
O2529      C2533   1.271   1_556  A
O2530     Mg2537   2.300       .  S
O2531      C2550   1.275       .  A
O2532      C2552   1.274       .  A
O2532     Mg2548   2.298       .  S
O2534     Mg3718   2.152   1_545  S
O2534      C2545   1.234       .  S
O2535     Mg3697   2.144       .  S
O2535     Mg2554   2.148   1_556  S
O2536     Mg2548   2.307       .  S
Mg2537     O3693   2.157       .  S
Mg2537     O2553   2.238       .  S
O2538     Mg3724   2.272   1_545  S
H2539      C2544   1.081   1_556  S
O2540     Mg3681   2.160       .  S
O2540     Mg2548   2.137       .  S
O2540      C2543   1.234       .  S
H2541      C2543   1.082       .  S
H2542      C2545   1.081       .  S
O2547     Mg2554   2.299       .  S
Mg2548     O3704   2.152       .  S
C2550      O2555   1.270   1_554  A
C2550      C3187   1.492       .  S
O2551      C2552   1.271       .  A
O2551     Mg3681   2.265       .  S
C2552      C3199   1.487       .  S
Mg2554     O3682   2.155       .  S
Mg2554     O3694   2.281       .  S
Mg2554     O3708   2.272       .  S
O2555     Mg3681   2.273       .  S
O2557     Mg2559   2.131   1_556  S
O2557     Mg2565   2.156       .  S
O2557      C2592   1.234       .  S
C2558      O2571   1.236       .  S
C2558      O2595   1.271       .  A
C2558      H2597   1.081       .  S
Mg2559     O2588   2.143       .  S
Mg2559     O2603   2.292       .  S
Mg2559     O2599   2.252       .  S
Mg2559     O2570   2.309       .  S
O2560     Mg2602   2.146       .  S
O2560     Mg2585   2.133       .  S
O2560      C2581   1.233       .  S
O2561      C2592   1.268       .  A
O2561     Mg2585   2.296       .  S
C2562      O2564   1.267       .  A
C2562      O2576   1.274       .  A
C2562      C3406   1.482       .  S
O2563      C2591   1.268   1_556  A
O2563     Mg2565   2.301       .  S
O2564     Mg2596   2.239       .  S
Mg2565     O2571   2.139       .  S
Mg2565     O2579   2.254       .  S
Mg2565     O2567   2.292       .  S
C2566      O2604   1.271       .  A
C2566      O2572   1.274   1_554  A
C2566      C3127   1.484       .  S
O2567      C2574   1.273       .  A
H2568      C2581   1.081       .  S
C2569      O2583   1.235       .  S
C2569      O2584   1.269       .  A
C2569      H2594   1.082   1_554  S
O2570      C2593   1.271       .  A
O2571     Mg2585   2.150       .  S
O2572     Mg2602   2.288       .  S
C2573      O2586   1.268       .  A
C2573      O2578   1.270       .  A
C2573      C3166   1.483       .  S
C2574      O2601   1.266       .  A
C2574      C3151   1.483       .  S
Mg2575     O2582   2.142       .  S
Mg2575     O2583   2.156       .  S
Mg2575     O2576   2.298       .  S
Mg2575     O2577   2.295       .  S
Mg2575     O2604   2.256       .  S
O2577      C2581   1.267   1_554  A
O2578     Mg2585   2.264       .  S
O2579      C2598   1.269       .  A
O2580      C2600   1.270       .  A
O2580     Mg2596   2.271       .  S
O2582     Mg2596   2.144       .  S
O2582      C2593   1.235       .  S
O2583     Mg2602   2.135   1_554  S
O2584     Mg2596   2.297       .  S
Mg2585     O2601   2.237       .  S
O2586     Mg2602   2.257       .  S
H2587      C2592   1.082   1_554  S
O2588     Mg2596   2.144       .  S
O2588      C2591   1.233       .  S
H2589      C2591   1.081       .  S
H2590      C2593   1.081       .  S
O2595     Mg2602   2.302       .  S
C2598      O2603   1.275   1_556  A
C2598      C3139   1.490       .  S
O2599      C2600   1.268       .  A
C2600      C3238   1.479       .  S
O2605     Mg2607   2.170   1_556  S
O2605      C2640   1.233       .  S
C2606      O2619   1.235       .  S
C2606      O2643   1.269       .  A
C2606      H2645   1.081       .  S
Mg2607     O2618   2.294       .  S
O2608     Mg2633   2.158       .  S
O2608      C2629   1.236       .  S
O2609      C2640   1.269       .  A
O2609     Mg2633   2.306       .  S
C2610      O2612   1.278       .  A
C2610      O2624   1.275       .  A
C2610      C3226   1.504       .  S
O2611      C2639   1.272   1_556  A
O2611     Mg2613   2.312       .  S
O2612     Mg2644   2.309       .  S
Mg2613     O2619   2.159       .  S
Mg2613     O2627   2.285       .  S
C2614      O2652   1.271       .  A
C2614      O2620   1.271   1_554  A
C2614      C3091   1.483       .  S
O2615      C2622   1.277       .  A
H2616      C2629   1.082       .  S
C2617      O2631   1.234       .  S
C2617      O2632   1.268       .  A
C2617      H2642   1.081   1_554  S
O2618      C2641   1.268       .  A
C2621      O2634   1.270       .  A
C2621      O2626   1.277       .  A
C2621      C3103   1.494       .  S
C2622      O2649   1.275       .  A
C2622      C3118   1.492       .  S
Mg2623     O2630   2.144       .  S
Mg2623     O2625   2.305       .  S
Mg2623     O2652   2.268       .  S
O2625      C2629   1.271   1_554  A
O2626     Mg2633   2.322       .  S
O2627      C2646   1.271       .  A
O2628      C2648   1.277       .  A
O2628     Mg2644   2.322       .  S
O2630      C2641   1.234       .  S
O2631     Mg2650   2.158   1_554  S
O2632     Mg2644   2.299       .  S
Mg2633     O2649   2.289       .  S
H2635      C2640   1.081   1_554  S
O2636     Mg2644   2.175       .  S
O2636      C2639   1.236       .  S
H2637      C2639   1.081       .  S
H2638      C2641   1.081       .  S
O2643     Mg2650   2.298       .  S
C2646      O2651   1.275   1_556  A
C2646      C3079   1.501       .  S
O2647      C2648   1.273       .  A
C2648      C3370   1.491       .  S
O2653     Mg2655   2.145       .  S
O2653     Mg2661   2.171       .  S
O2653      C2688   1.234       .  S
C2654      O2667   1.235       .  S
C2654      O2691   1.270       .  A
C2654      H2693   1.081       .  S
Mg2655     O2684   2.162       .  S
Mg2655     O2699   2.280   1_545  S
Mg2655     O2695   2.274       .  S
Mg2655     O2666   2.293       .  S
O2656     Mg2698   2.151       .  S
O2656     Mg2681   2.143       .  S
O2656      C2677   1.233       .  S
O2657      C2688   1.268       .  A
O2657     Mg2681   2.292       .  S
C2658      O2660   1.273       .  A
C2658      O2672   1.271       .  A
C2658      C3070   1.484       .  S
O2659      C2687   1.267       .  A
O2659     Mg2661   2.292       .  S
O2660     Mg2692   2.270       .  S
Mg2661     O2667   2.153       .  S
Mg2661     O3845   2.275   1_545  S
Mg2661     O2663   2.307       .  S
C2662      O2700   1.274       .  A
C2662      O2668   1.271       .  A
C2662      C3007   1.490       .  S
O2663      C2670   1.275       .  A
H2664      C2677   1.082       .  S
C2665      O2679   1.234       .  S
C2665      O2680   1.269       .  A
C2665      H2690   1.082       .  S
O2666      C2689   1.269       .  A
O2667     Mg2681   2.158       .  S
O2668     Mg2698   2.289       .  S
C2669      O2682   1.269       .  A
C2669      O2674   1.270       .  A
C2669      C3043   1.474       .  S
C2670      O2697   1.268       .  A
C2670      C4201   1.483   1_545  S
Mg2671     O2678   2.150       .  S
Mg2671     O2679   2.161       .  S
Mg2671     O2672   2.270       .  S
Mg2671     O2673   2.300       .  S
Mg2671     O2700   2.283       .  S
O2673      C2677   1.268       .  A
O2674     Mg2681   2.283       .  S
O2675      C2694   1.274       .  A
O2675     Mg3831   2.275       .  S
O2676      C2696   1.275       .  A
O2676     Mg2692   2.300       .  S
O2678     Mg2692   2.174       .  S
O2678      C2689   1.235       .  S
O2679     Mg2698   2.143       .  S
O2680     Mg2692   2.298       .  S
Mg2681     O2697   2.239       .  S
O2682     Mg2698   2.255       .  S
H2683      C2688   1.082   1_565  S
O2684     Mg2692   2.142       .  S
O2684      C2687   1.234       .  S
H2685      C2687   1.082       .  S
H2686      C2689   1.081       .  S
O2691     Mg2698   2.305       .  S
C2694      O3869   1.273       .  A
C2694      C3022   1.486       .  S
O2695      C2696   1.274       .  A
C2696      C3058   1.490       .  S
O2699      C3864   1.273       .  A
C2701      C3163   1.481       .  S
C2701      C2702   1.418       .  A
C2701      C2706   1.400       .  A
C2702      C3115   1.498       .  S
C2702      C2703   1.411       .  A
C2703      H2708   1.084       .  S
C2703      C2704   1.410       .  A
C2704      C2995   1.490       .  S
C2704      C2705   1.416       .  A
C2705      C3046   1.485       .  S
C2705      C2706   1.397       .  A
C2706      H2707   1.085       .  S
C2709      C3106   1.486       .  S
C2709      C2710   1.419       .  A
C2709      C2714   1.405       .  A
C2710      C3202   1.480       .  S
C2710      C2711   1.402       .  A
C2711      H2716   1.085       .  S
C2711      C2712   1.399       .  A
C2712      C3034   1.483       .  S
C2712      C2713   1.412       .  A
C2713      C2983   1.482       .  S
C2713      C2714   1.402       .  A
C2714      H2715   1.085       .  S
O2717     Mg2719   2.158       .  S
O2717     Mg2725   2.151       .  S
O2717      C2752   1.234       .  S
C2718      O2731   1.235       .  S
C2718      O2755   1.270       .  A
C2718      H2757   1.082       .  S
Mg2719     O2748   2.160       .  S
Mg2719     O2763   2.296       .  S
Mg2719     O2759   2.265       .  S
Mg2719     O2730   2.300       .  S
O2720     Mg2762   2.161       .  S
O2720     Mg2745   2.163       .  S
O2720      C2741   1.236       .  S
O2721      C2752   1.269       .  A
O2721     Mg2745   2.300       .  S
C2722      O2724   1.273       .  A
C2722      O2736   1.274       .  A
C2722      C2959   1.486       .  S
O2723      C2751   1.271       .  A
O2723     Mg2725   2.312       .  S
O2724     Mg2756   2.282       .  S
Mg2725     O2731   2.164       .  S
Mg2725     O2727   2.303       .  S
C2726      O2764   1.271       .  A
C2726      O2732   1.275       .  A
C2726      C2923   1.495       .  S
O2727      C2734   1.276       .  A
H2728      C2741   1.081       .  S
C2729      O2743   1.235       .  S
C2729      O2744   1.270       .  A
C2729      H2754   1.081       .  S
O2730      C2753   1.270       .  A
O2731     Mg2745   2.176       .  S
O2732     Mg3932   2.320       .  S
C2733      O2746   1.271       .  A
C2733      O2738   1.277       .  A
C2733      C2950   1.486   1_545  S
C2734      O2761   1.273       .  A
Mg2735     O2742   2.152       .  S
Mg2735     O2743   2.147       .  S
Mg2735     O2736   2.304       .  S
Mg2735     O2737   2.305       .  S
Mg2735     O3934   2.261   1_545  S
O2737      C2741   1.271       .  A
O2738     Mg2745   2.319       .  S
O2739      C2758   1.271       .  A
O2740      C2760   1.274       .  A
O2740     Mg2756   2.305       .  S
O2742     Mg2756   2.154       .  S
O2742      C2753   1.235       .  S
O2743     Mg2762   2.151       .  S
O2744     Mg2756   2.306       .  S
Mg2745     O2761   2.286       .  S
O2746     Mg2762   2.252       .  S
H2747      C2752   1.081       .  S
O2748     Mg2756   2.158       .  S
O2748      C2751   1.235       .  S
H2749      C2751   1.081       .  S
H2750      C2753   1.082       .  S
O2755     Mg2762   2.303       .  S
C2758      C2938   1.499       .  S
O2759      C2760   1.271       .  A
C2760      C2971   1.486       .  S
Mg2762     O3902   2.320   1_545  S
O2764     Mg3905   2.261       .  S
O2765     Mg2767   2.144       .  S
O2765     Mg2773   2.158       .  S
O2765      C2800   1.235       .  S
C2766      O2779   1.234       .  S
C2766      O2803   1.269       .  A
C2766      H2805   1.081       .  S
Mg2767     O2796   2.168       .  S
Mg2767     O2811   2.289       .  S
Mg2767     O2807   2.264       .  S
Mg2767     O2778   2.297       .  S
O2768     Mg2810   2.159       .  S
O2768     Mg2793   2.147       .  S
O2768      C2789   1.234       .  S
O2769      C2800   1.270       .  A
O2769     Mg2793   2.307       .  S
C2770      O2772   1.271       .  A
C2770      O2784   1.274       .  A
O2771      C2799   1.269       .  A
O2771     Mg2773   2.295       .  S
O2772     Mg2804   2.258       .  S
Mg2773     O2779   2.145       .  S
Mg2773     O2787   2.252       .  S
Mg2773     O2775   2.285       .  S
C2774      O2812   1.273       .  A
C2774      C2863   1.486       .  S
O2775      C2782   1.272       .  A
H2776      C2789   1.082       .  S
C2777      O2791   1.234       .  S
C2777      O2792   1.269       .  A
C2777      H2802   1.081       .  S
O2778      C2801   1.268       .  A
O2779     Mg2793   2.146       .  S
O2780     Mg2810   2.277   1_455  S
C2781      O2794   1.270       .  A
C2781      O2786   1.273       .  A
C2781      C2914   1.489       .  S
C2782      O2809   1.269       .  A
C2782      C2902   1.480       .  S
Mg2783     O2790   2.158       .  S
Mg2783     O2791   2.162       .  S
Mg2783     O2784   2.284       .  S
Mg2783     O2785   2.301       .  S
O2785      C2789   1.269       .  A
O2786     Mg2793   2.291       .  S
O2787      C2806   1.270       .  A
O2788      C2808   1.274       .  A
O2788     Mg2804   2.297       .  S
O2790     Mg2804   2.170       .  S
O2790      C2801   1.233       .  S
O2791     Mg2810   2.146       .  S
O2792     Mg2804   2.298       .  S
Mg2793     O2809   2.261       .  S
O2794     Mg2810   2.262       .  S
H2795      C2800   1.081       .  S
O2796     Mg2804   2.147       .  S
O2796      C2799   1.235       .  S
H2797      C2799   1.082       .  S
H2798      C2801   1.081       .  S
O2803     Mg2810   2.299       .  S
C2806      O2811   1.272       .  A
C2806      C2875   1.489       .  S
O2807      C2808   1.272       .  A
C2808      C2887   1.487       .  S
C2813      C3154   1.475       .  S
C2813      C2814   1.406       .  A
C2813      C2818   1.396       .  A
C2814      C3211   1.476       .  S
C2814      C2815   1.397       .  A
C2815      H2820   1.084       .  S
C2815      C2816   1.405       .  A
C2816      C2947   1.487       .  S
C2816      C2817   1.424       .  A
C2817      C2890   1.484       .  S
C2817      C2818   1.405       .  A
C2818      H2819   1.084       .  S
C2821      C3466   1.482       .  S
C2821      C2822   1.416       .  A
C2821      C2826   1.400       .  A
C2822      C3334   1.486       .  S
C2822      C2823   1.402       .  A
C2823      H2828   1.085       .  S
C2824      C2911   1.486       .  S
C2824      C2825   1.416       .  A
C2825      C2974   1.482       .  S
C2826      H2827   1.085       .  S
C2829      C3478   1.486       .  S
C2829      C2830   1.417       .  A
C2829      C2834   1.405       .  A
C2830      C3286   1.478       .  S
C2830      C2831   1.400       .  A
C2831      H2836   1.084       .  S
C2831      C2832   1.398       .  A
C2832      C2899   1.479       .  S
C2832      C2833   1.412       .  A
C2833      C3067   1.480       .  S
C2833      C2834   1.402       .  A
C2834      H2835   1.084       .  S
C2837      C3274   1.485       .  S
C2837      C2838   1.416       .  A
C2837      C2842   1.403       .  A
C2838      C3343   1.487       .  S
C2838      C2839   1.406       .  A
C2839      H2844   1.084       .  S
C2839      C4010   1.404       .  A
C2840      C3055   1.484       .  S
C2840      C4009   1.404   1_545  A
C2840      C2841   1.415       .  A
C2841      C2962   1.487       .  S
C2841      C4012   1.406       .  A
C2842      H2843   1.084       .  S
C2842      C4011   1.406       .  A
C2845      C2846   1.413       .  A
C2846      C3130   1.480       .  S
C2846      C4017   1.413       .  A
C2847      C3190   1.492       .  S
C2847      C4016   1.413       .  A
C2847      C2848   1.415       .  A
C2848      C3094   1.493       .  S
C2849      C3142   1.491       .  S
C2849      C2850   1.422       .  A
C2850      C4348   1.493   1_554  S
C2851      C3451   1.493       .  S
C2851      C2852   1.414       .  A
C2851      C2856   1.416       .  A
C2852      C3319   1.495       .  S
C2852      C2853   1.419       .  A
C2853      C3259   1.482       .  S
C2853      C2854   1.416       .  A
C2854      C3439   1.490       .  S
C2854      C2855   1.412       .  A
C2855      C3310   1.494       .  S
C2855      C2856   1.415       .  A
C2856      C3250   1.478       .  S
C2857      C2866   1.497       .  S
C2857      C2858   1.420       .  A
C2857      C2862   1.425       .  A
C2858      C3019   1.494       .  S
C2858      C2859   1.415       .  A
C2859      C2926   1.504       .  S
C2859      C2860   1.420       .  A
C2860      C2878   1.495       .  S
C2860      C2861   1.427       .  A
C2861      C3010   1.499       .  S
C2861      C2862   1.425       .  A
C2862      C2935   1.501       .  S
C2863      C2864   1.407       .  A
C2863      C2868   1.410       .  A
C2864      H2873   1.084       .  S
C2864      C2865   1.397       .  A
C2865      C2866   1.415       .  A
C2865      S2869   1.810       .  S
C2866      C2867   1.410       .  A
C2867      H2874   1.083       .  S
C2867      C2868   1.401       .  A
C2868      S2870   1.798       .  S
S2869      H2872   1.399       .  S
S2870      H2871   1.407       .  S
C2875      C2876   1.408       .  A
C2875      C2880   1.417       .  A
C2876      H2885   1.083       .  S
C2876      C2877   1.399       .  A
C2877      C2878   1.414       .  A
C2877      S2881   1.799       .  S
C2878      C2879   1.404       .  A
C2879      H2886   1.084       .  S
C2879      C2880   1.396       .  A
C2880      S2882   1.801       .  S
S2881      H2884   1.395       .  S
S2882      H2883   1.408       .  S
C2887      C2888   1.408       .  A
C2887      C2892   1.415       .  A
C2888      H2897   1.081       .  S
C2888      C2889   1.400       .  A
C2889      C2890   1.411       .  A
C2889      S2893   1.804       .  S
C2890      C2891   1.405       .  A
C2891      H2898   1.084       .  S
C2891      C2892   1.399       .  A
C2892      S2894   1.803       .  S
S2893      H2896   1.405       .  S
S2894      H2895   1.408       .  S
C2899      C2900   1.404       .  A
C2899      C2904   1.410       .  A
C2900      H2909   1.084       .  S
C2900      C2901   1.399       .  A
C2901      C2902   1.414       .  A
C2901      S2905   1.802       .  S
C2902      C2903   1.408       .  A
C2903      H2910   1.084       .  S
C2903      C2904   1.395       .  A
C2904      S2906   1.807       .  S
S2905      H2908   1.407       .  S
S2906      H2907   1.404       .  S
C2911      C2912   1.402   1_655  A
C2911      C2916   1.413       .  A
C2912      C2913   1.400   1_455  A
C2913      C2914   1.420       .  A
C2913      S2917   1.802   1_655  S
C2914      C2915   1.407       .  A
C2915      H2922   1.084       .  S
C2915      C2916   1.399       .  A
C2916      S2918   1.805       .  S
S2917      H2920   1.408   1_455  S
S2918      H2919   1.406       .  S
C2923      C2924   1.407       .  A
C2923      C2928   1.420       .  A
C2924      H2933   1.083       .  S
C2924      C2925   1.401       .  A
C2925      C2926   1.414       .  A
C2925      S2929   1.802       .  S
C2926      C2927   1.404       .  A
C2927      H2934   1.083       .  S
C2927      C2928   1.401       .  A
C2928      S2930   1.801       .  S
S2929      H2932   1.403       .  S
S2930      H2931   1.408       .  S
C2935      C2936   1.404       .  A
C2935      C2940   1.418       .  A
C2936      H2945   1.084       .  S
C2936      C2937   1.402       .  A
C2937      C2938   1.420       .  A
C2937      S2941   1.798       .  S
C2938      C2939   1.408       .  A
C2939      H2946   1.083       .  S
C2939      C2940   1.400       .  A
C2940      S2942   1.805       .  S
S2941      H2944   1.408       .  S
S2942      H2943   1.393       .  S
C2947      C2948   1.405       .  A
C2947      C2952   1.413       .  A
C2948      H2957   1.083       .  S
C2948      C2949   1.403       .  A
C2949      C4120   1.413       .  A
C2949      S2953   1.808       .  S
C2950      C4119   1.413       .  A
C2950      C2951   1.408       .  A
C2951      H2958   1.084       .  S
C2951      C4122   1.402       .  A
C2952      C4121   1.402       .  A
C2952      S4124   1.804       .  S
S2953      H2956   1.406       .  S
S2954      C4122   1.804       .  S
S2954      H4125   1.405       .  S
H2955      S4124   1.405       .  S
C2959      C2960   1.406       .  A
C2959      C2964   1.419       .  A
C2960      H2969   1.084       .  S
C2960      C2961   1.405       .  A
C2961      C2962   1.415       .  A
C2961      S2965   1.804       .  S
C2962      C2963   1.400       .  A
C2963      H4140   1.084   1_545  S
C2963      C2964   1.397       .  A
C2964      S4136   1.804   1_545  S
S2965      H2968   1.405       .  S
S2966      C4134   1.804       .  S
S2966      H2967   1.407       .  S
H2970      C4133   1.084       .  S
C2971      C2972   1.406       .  A
C2971      C2976   1.419       .  A
C2973      S2977   1.805       .  S
C2974      C2975   1.399       .  A
C2975      H2982   1.084       .  S
C2975      C2976   1.398       .  A
C2976      S2978   1.800       .  S
S2977      H2980   1.406       .  S
S2978      H2979   1.408       .  S
C2983      C2984   1.407       .  A
C2983      C2988   1.413       .  A
C2984      H2993   1.084       .  S
C2984      C2985   1.400       .  A
C2985      C2986   1.410       .  A
C2985      S2989   1.802       .  S
C2986      C2987   1.405       .  A
C2987      C2988   1.395       .  A
C2988      S2990   1.809       .  S
S2989      H2992   1.407       .  S
S2990      H2991   1.403       .  S
C2995      C2996   1.403       .  A
C2995      C3000   1.410       .  A
C2996      H3005   1.084       .  S
C2997      S3001   1.802   1_455  S
C2998      C2999   1.411       .  A
C2999      H3006   1.081       .  S
C2999      C3000   1.401       .  A
C3000      S3002   1.802       .  S
S3001      H3004   1.408       .  S
S3002      H3003   1.406       .  S
C3007      C3008   1.403       .  A
C3007      C3012   1.419       .  A
C3008      H3017   1.084       .  S
C3008      C3009   1.403       .  A
C3009      C3010   1.421       .  A
C3009      S3013   1.801       .  S
C3010      C3011   1.402       .  A
C3011      H3018   1.084       .  S
C3011      C3012   1.398       .  A
C3012      S3014   1.801       .  S
S3013      H3016   1.394       .  S
S3014      H3015   1.408       .  S
C3019      C3020   1.403       .  A
C3019      C3024   1.415       .  A
C3020      H3029   1.081       .  S
C3020      C3021   1.393       .  A
C3021      C3022   1.415       .  A
C3021      S3025   1.804       .  S
C3022      C3023   1.408       .  A
C3023      H3030   1.084       .  S
C3023      C3024   1.402       .  A
C3024      S3026   1.805       .  S
S3025      H3028   1.408       .  S
S3026      H3027   1.404       .  S
C3031      C3840   1.483       .  S
C3031      C3032   1.405       .  A
C3031      C4206   1.420       .  A
C3032      H3041   1.084       .  S
C3032      C3033   1.399       .  A
C3033      C3034   1.414       .  A
C3033      S3037   1.801       .  S
C3034      C3035   1.398       .  A
C3035      H3042   1.084       .  S
C3035      C4206   1.395       .  A
C3036      C4201   1.420   1_545  A
C3036      C4205   1.395   1_545  A
C3036      S3038   1.802       .  S
S3037      H3040   1.406       .  S
S3038      H3039   1.408       .  S
C3043      C3044   1.400       .  A
C3043      C3048   1.415       .  A
C3044      H3053   1.084       .  S
C3044      C3045   1.399       .  A
C3045      C3046   1.418       .  A
C3045      S3049   1.804       .  S
C3046      C3047   1.400       .  A
C3047      H3054   1.083       .  S
C3047      C3048   1.395       .  A
C3048      S3050   1.801       .  S
S3049      H3052   1.404       .  S
S3050      H3051   1.400       .  S
C3055      C3056   1.401       .  A
C3055      C3060   1.412   1_545  A
C3056      H3065   1.083       .  S
C3056      C3057   1.401       .  A
C3057      C3058   1.418       .  A
C3057      S3061   1.803       .  S
C3058      C3059   1.408   1_545  A
C3059      H3066   1.082       .  S
C3059      C3060   1.400       .  A
C3060      S4232   1.805       .  S
S3061      H3064   1.407       .  S
S3062      C4230   1.805       .  S
S3062      H3063   1.405       .  S
C3067      C3068   1.401       .  A
C3067      C3072   1.411       .  A
C3068      H3077   1.083       .  S
C3068      C3069   1.393       .  A
C3069      C3070   1.418       .  A
C3069      S3073   1.805       .  S
C3070      C3071   1.409       .  A
C3071      H3078   1.084       .  S
C3071      C3072   1.401       .  A
C3072      S3074   1.804       .  S
S3073      H3076   1.408       .  S
S3074      H3075   1.405       .  S
C3079      C3080   1.410   1_556  A
C3080      H3089   1.080       .  S
C3080      C3081   1.398       .  A
C3081      C3082   1.411   1_554  A
C3081      S3085   1.805       .  S
C3083      H3090   1.083       .  S
C3083      C3084   1.402       .  A
C3084      S3086   1.798       .  S
S3085      H3088   1.400       .  S
S3086      H3087   1.408       .  S
C3091      C3092   1.409   1_554  A
C3091      C3096   1.411       .  A
C3093      S3097   1.807       .  S
C3094      C3095   1.405       .  A
C3095      H3102   1.082       .  S
C3095      C3096   1.396       .  A
C3096      S3098   1.801       .  S
S3097      H3100   1.403       .  S
S3098      H3099   1.408       .  S
C3103      C3104   1.412       .  A
C3103      C3108   1.416       .  A
C3104      H3113   1.084       .  S
C3104      C3105   1.403       .  A
C3105      C3106   1.411       .  A
C3105      S3109   1.805       .  S
C3106      C3107   1.404       .  A
C3107      H3114   1.084       .  S
C3107      C3108   1.400       .  A
C3108      S3110   1.802       .  S
S3109      H3112   1.405       .  S
S3110      H3111   1.407       .  S
C3115      C3116   1.402       .  A
C3115      C3120   1.416       .  A
C3116      H3125   1.083       .  S
C3116      C3117   1.402       .  A
C3117      C3118   1.419       .  A
C3118      C3119   1.404       .  A
C3119      H3126   1.082       .  S
C3119      C3120   1.409       .  A
C3120      S3122   1.803       .  S
S3121      H3124   1.407   1_455  S
S3122      H3123   1.407       .  S
C3127      C3128   1.409   1_554  A
C3127      C3132   1.415       .  A
C3128      H3137   1.083       .  S
C3128      C3129   1.397       .  A
C3129      C3130   1.410   1_556  A
C3129      S3133   1.809       .  S
C3130      C3131   1.401       .  A
C3131      H3138   1.080       .  S
C3131      C3132   1.395       .  A
C3132      S3134   1.802       .  S
S3133      H3136   1.402       .  S
S3134      H3135   1.407       .  S
C3139      C3140   1.407   1_556  A
C3139      C3144   1.419       .  A
C3140      H3149   1.084       .  S
C3140      C3141   1.397       .  A
C3141      C3142   1.417       .  A
C3141      S3145   1.809       .  S
C3142      C3143   1.403   1_554  A
C3143      H3150   1.084       .  S
C3143      C3144   1.398       .  A
C3144      S3146   1.802       .  S
S3145      H3148   1.398       .  S
S3146      H3147   1.407       .  S
C3151      C3152   1.408       .  A
C3151      C3156   1.417       .  A
C3152      H3161   1.084       .  S
C3152      C3153   1.396       .  A
C3153      C3154   1.410       .  A
C3153      S3157   1.809       .  S
C3154      C3155   1.401       .  A
C3155      H3162   1.084       .  S
C3155      C3156   1.397       .  A
C3156      S3158   1.803       .  S
S3157      H3160   1.401       .  S
S3158      H3159   1.408       .  S
C3163      C3164   1.403       .  A
C3163      C3168   1.415       .  A
C3164      H3173   1.084       .  S
C3164      C3165   1.398       .  A
C3165      C3166   1.417       .  A
C3165      S3169   1.801       .  S
C3166      C3167   1.406       .  A
C3167      H3174   1.084       .  S
C3167      C3168   1.394       .  A
C3168      S3170   1.807       .  S
S3169      H3172   1.408       .  S
S3170      H3171   1.401       .  S
C3175      C3176   1.406   1_546  A
C3175      C3180   1.412       .  A
C3176      H4355   1.084       .  S
C3176      C4347   1.395       .  A
C3177      C4346   1.395       .  A
C3177      C4348   1.413   1_554  A
C3177      S3181   1.802       .  S
C3178      C4020   1.493   1_556  S
C3178      C4347   1.413   1_556  A
C3178      C3179   1.407   1_565  A
C3179      H3186   1.084       .  S
C3179      C3180   1.401       .  A
C3180      S3182   1.801       .  S
S3181      H3184   1.395       .  S
S3182      H3183   1.407       .  S
H3185      C4346   1.084       .  S
C3187      C4358   1.408       .  A
C3187      C3192   1.421   1_554  A
C3188      H3197   1.083       .  S
C3188      C4357   1.408   1_545  A
C3188      C3189   1.402       .  A
C3189      C4360   1.414       .  A
C3189      S3193   1.806       .  S
C3190      C4359   1.414       .  A
C3190      C3191   1.401   1_554  A
C3191      H3198   1.083       .  S
C3191      C3192   1.396       .  A
C3192      S3194   1.805       .  S
S3193      H3196   1.403       .  S
S3194      H3195   1.408       .  S
C3199      C3200   1.409       .  A
C3199      C3204   1.415       .  A
C3200      H3209   1.084       .  S
C3200      C3201   1.399       .  A
C3201      C3202   1.410       .  A
C3201      S3205   1.806       .  S
C3202      C3203   1.405       .  A
C3203      H3210   1.084       .  S
C3203      C3204   1.401       .  A
C3204      S3206   1.803       .  S
S3205      H3208   1.404       .  S
S3206      H4377   1.407       .  S
H3207      S4376   1.407       .  S
C3211      C3212   1.401       .  A
C3211      C3216   1.410       .  A
C3212      H3221   1.084       .  S
C3212      C3213   1.397       .  A
C3213      C3214   1.416       .  A
C3213      S3217   1.803       .  S
C3214      C3215   1.408       .  A
C3215      H3222   1.084       .  S
C3215      C3216   1.396       .  A
C3216      S3218   1.806       .  S
S3217      H3220   1.408       .  S
S3218      H3219   1.401       .  S
C3223      C3224   1.403       .  A
C3223      C3228   1.411       .  A
C3224      H3233   1.082       .  S
C3224      C3225   1.408       .  A
C3225      C3226   1.423       .  A
C3226      C3227   1.411       .  A
C3227      H3234   1.082       .  S
C3227      C3228   1.409       .  A
C3228      S3230   1.807       .  S
S3229      H3232   1.407       .  S
S3230      H3231   1.407       .  S
C3235      C3236   1.402       .  A
C3235      C3240   1.407       .  A
C3236      H3245   1.084       .  S
C3236      C3237   1.397       .  A
C3237      C3238   1.415       .  A
C3237      S3241   1.802       .  S
C3238      C3239   1.409       .  A
C3239      H3246   1.084       .  S
C3239      C3240   1.393       .  A
C3240      S3242   1.806       .  S
S3241      H3244   1.407       .  S
S3242      H3243   1.403       .  S
C3247      C3248   1.409       .  A
C3247      C3252   1.420       .  A
C3248      H3257   1.084       .  S
C3248      C3249   1.398       .  A
C3249      C3250   1.412       .  A
C3249      S3253   1.808       .  S
C3250      C3251   1.398       .  A
C3251      H3258   1.083       .  S
C3251      C3252   1.394       .  A
C3252      S3254   1.799       .  S
S3253      H3256   1.399       .  S
S3254      H3255   1.408       .  S
C3259      C3260   1.401       .  A
C3259      C3264   1.411       .  A
C3260      H3269   1.083       .  S
C3260      C3261   1.397       .  A
C3261      C3262   1.414       .  A
C3261      S3265   1.798       .  S
C3262      C3263   1.411       .  A
C3263      H3270   1.084       .  S
C3263      C3264   1.398       .  A
C3264      S3266   1.807       .  S
S3265      H3268   1.408       .  S
S3266      H3267   1.400       .  S
C3271      C3272   1.410       .  A
C3271      C3276   1.417       .  A
C3272      H3281   1.083       .  S
C3272      C3273   1.397       .  A
C3273      C3274   1.410       .  A
C3273      S3277   1.806       .  S
C3274      C3275   1.404       .  A
C3275      H4452   1.083       .  S
C3275      C3276   1.404       .  A
C3276      S4448   1.801       .  S
S3277      H3280   1.405       .  S
S3278      C4446   1.801       .  S
S3278      H3279   1.407       .  S
H3282      C4445   1.083       .  S
C3283      C3284   1.405       .  A
C3283      C3288   1.416       .  A
C3284      H3293   1.084       .  S
C3284      C3285   1.399       .  A
C3285      C3286   1.413       .  A
C3285      S3289   1.802       .  S
C3286      C3287   1.398       .  A
C3287      H3294   1.084       .  S
C3287      C3288   1.393       .  A
C3288      S3290   1.800       .  S
S3289      H3292   1.406       .  S
S3290      H3291   1.407       .  S
C3295      C3296   1.402       .  A
C3295      C3300   1.419       .  A
C3296      H3305   1.084       .  S
C3296      C3297   1.398       .  A
C3297      C3298   1.414       .  A
C3297      S3301   1.804       .  S
C3298      C3299   1.399       .  A
C3299      H3306   1.084       .  S
C3299      C3300   1.396       .  A
C3300      S3302   1.804       .  S
S3301      H3304   1.406       .  S
S3302      H3303   1.408       .  S
C3307      C3308   1.411       .  A
C3307      C3312   1.420       .  A
C3308      H3317   1.083       .  S
C3308      C3309   1.400       .  A
C3309      C3310   1.413       .  A
C3309      S3313   1.808       .  S
C3310      C3311   1.402       .  A
C3311      H3318   1.083       .  S
C3311      C3312   1.400       .  A
C3312      S3314   1.801       .  S
S3313      H3316   1.399       .  S
S3314      H3315   1.408       .  S
C3319      C3320   1.400       .  A
C3319      C3324   1.419       .  A
C3320      H3329   1.082       .  S
C3320      C3321   1.394       .  A
C3321      C3322   1.417       .  A
C3321      S3325   1.802       .  S
C3322      C3323   1.405       .  A
C3323      H3330   1.084       .  S
C3323      C3324   1.403       .  A
C3324      S3326   1.807       .  S
S3325      H3328   1.408       .  S
S3326      H3327   1.398       .  S
C3331      C3332   1.406       .  A
C3331      C3336   1.419       .  A
C3332      H3341   1.084       .  S
C3332      C3333   1.399       .  A
C3333      C3334   1.414       .  A
C3333      S3337   1.804       .  S
C3334      C3335   1.401       .  A
C3335      H3342   1.082       .  S
C3335      C3336   1.397       .  A
C3336      S3338   1.801       .  S
S3337      H3340   1.407       .  S
S3338      H3339   1.407       .  S
C3343      C3344   1.402       .  A
C3343      C3348   1.411       .  A
C3344      H3353   1.083       .  S
C3344      C3345   1.402       .  A
C3345      C3346   1.422       .  A
C3345      S3349   1.802       .  S
C3346      C3347   1.411       .  A
C3347      H3354   1.083       .  S
C3347      C3348   1.400       .  A
C3348      S4520   1.805       .  S
S3349      H3352   1.408       .  S
S3350      C4518   1.805   1_545  S
S3350      H3351   1.405       .  S
C3355      C3356   1.404       .  A
C3355      C3360   1.415       .  A
C3356      H3365   1.084       .  S
C3356      C3357   1.401       .  A
C3357      C3358   1.420       .  A
C3357      S3361   1.804       .  S
C3358      C3359   1.407       .  A
C3359      C3360   1.404       .  A
C3360      S3362   1.803       .  S
S3361      H3364   1.408       .  S
S3362      H3363   1.406       .  S
C3367      C3368   1.401       .  A
C3367      C3372   1.419       .  A
C3368      H3377   1.084       .  S
C3368      C3369   1.399       .  A
C3369      C3370   1.419       .  A
C3369      S3373   1.800       .  S
C3370      C3371   1.405       .  A
C3371      H3378   1.084       .  S
C3371      C3372   1.405       .  A
C3372      S3374   1.806       .  S
S3373      H3376   1.407       .  S
S3374      H3375   1.404       .  S
C3379      C3380   1.405       .  A
C3379      C3384   1.410       .  A
C3380      H3389   1.084       .  S
C3380      C3381   1.403       .  A
C3381      C3382   1.417       .  A
C3381      S4555   1.802   1_545  S
C3382      C3383   1.410       .  A
C3383      H3390   1.083       .  S
C3383      C3384   1.400       .  A
C3384      S3386   1.802       .  S
S3385      C4551   1.802       .  S
S3385      H3388   1.407       .  S
S3386      H3387   1.406       .  S
C3391      C3628   1.480   1_545  S
C3391      C3392   1.407   1_545  A
C3391      C3396   1.412       .  A
C3392      H4571   1.084       .  S
C3392      C3393   1.397   1_565  A
C3393      C3394   1.413       .  A
C3393      S3397   1.808   1_545  S
C3394      C3395   1.407       .  A
C3395      H3402   1.083       .  S
C3395      C3396   1.398       .  A
C3396      S3398   1.803       .  S
S3397      H3400   1.403   1_565  S
S3398      H3399   1.407       .  S
H3401      C4562   1.084       .  S
C3403      C3404   1.402       .  A
C3403      C3408   1.412       .  A
C3404      H3413   1.084       .  S
C3404      C3405   1.396       .  A
C3405      C3406   1.415       .  A
C3405      S3409   1.803       .  S
C3406      C3407   1.408       .  A
C3407      H3414   1.084       .  S
C3407      C3408   1.398       .  A
C3408      S3410   1.808       .  S
S3409      H3412   1.408       .  S
S3410      H3411   1.401       .  S
C3415      C3416   1.400       .  A
C3415      C3420   1.408       .  A
C3416      H3425   1.083       .  S
C3416      C3417   1.403       .  A
C3417      C3418   1.422       .  A
C3417      S3421   1.811       .  S
C3418      C3419   1.409       .  A
C3419      H3426   1.083       .  S
C3419      C3420   1.396       .  A
C3420      S3422   1.804       .  S
S3421      H3424   1.406       .  S
S3422      H3423   1.404       .  S
C3427      C3428   1.405       .  A
C3427      C3432   1.410       .  A
C3428      H3437   1.084       .  S
C3428      C4599   1.400   1_545  A
C3429      C4598   1.400       .  A
C3429      C3430   1.416       .  A
C3429      S3433   1.803       .  S
C3430      C4601   1.410       .  A
C3431      H3438   1.084       .  S
C3431      C4600   1.410       .  A
C3431      C3432   1.398       .  A
C3432      S3434   1.802       .  S
S3433      H3436   1.408       .  S
S3434      H3435   1.406       .  S
C3439      C3440   1.397       .  A
C3439      C3444   1.416       .  A
C3440      H3449   1.081       .  S
C3440      C3441   1.394       .  A
C3441      C3442   1.419       .  A
C3441      S3445   1.803       .  S
C3442      C3443   1.407       .  A
C3443      H3450   1.084       .  S
C3443      C3444   1.405       .  A
C3444      S3446   1.807       .  S
S3445      H3448   1.408       .  S
S3446      H3447   1.402       .  S
C3451      C3452   1.397       .  A
C3451      C3456   1.413       .  A
C3452      H3461   1.079       .  S
C3452      C3453   1.399       .  A
C3453      C3454   1.423       .  A
C3453      S3457   1.798       .  S
C3454      C3455   1.411       .  A
C3455      H3462   1.083       .  S
C3455      C3456   1.403       .  A
C3456      S3458   1.807       .  S
S3457      H3460   1.408       .  S
S3458      H3459   1.403       .  S
C3463      C3464   1.407       .  A
C3463      C3468   1.425       .  A
C3464      H3473   1.084       .  S
C3464      C3465   1.404       .  A
C3465      C3466   1.414       .  A
C3466      C3467   1.396       .  A
C3467      H3474   1.085       .  S
C3467      C3468   1.397       .  A
C3468      S3470   1.800       .  S
S3469      H3472   1.404       .  S
S3470      H3471   1.407       .  S
C3475      C3476   1.406       .  A
C3475      C3480   1.413       .  A
C3476      H3485   1.081       .  S
C3476      C3477   1.399       .  A
C3477      C3478   1.413       .  A
C3477      S3481   1.807       .  S
C3478      C3479   1.405       .  A
C3479      H3486   1.083       .  S
C3479      C3480   1.396       .  A
C3480      S3482   1.804       .  S
S3481      H3484   1.404       .  S
S3482      H3483   1.408       .  S
C3487      C3488   1.400       .  A
C3487      C3492   1.415       .  A
C3488      H3497   1.084       .  S
C3488      C3489   1.398       .  A
C3489      C3490   1.417       .  A
C3490      C3491   1.403       .  A
C3491      H3498   1.084       .  S
C3491      C3492   1.400       .  A
C3492      S3494   1.801       .  S
S3493      H3496   1.407       .  S
S3494      H3495   1.406       .  S
C3499      C3500   1.402       .  A
C3499      C3504   1.418       .  A
C3500      H3509   1.084       .  S
C3500      C3501   1.400       .  A
C3501      C3502   1.418       .  A
C3501      S3505   1.803       .  S
C3502      C3503   1.404       .  A
C3503      H3510   1.084       .  S
C3503      C3504   1.402       .  A
C3504      S3506   1.807       .  S
S3505      H3508   1.407       .  S
S3506      H3507   1.403       .  S
O3511     Mg3513   2.167       .  S
O3511     Mg3519   2.159       .  S
O3511      C3546   1.235       .  S
C3512      O3525   1.235       .  S
C3512      O3549   1.270       .  A
C3512      H3551   1.080       .  S
Mg3513     O3542   2.152       .  S
Mg3513     O3557   2.326       .  S
Mg3513     O3553   2.300       .  S
Mg3513     O3524   2.311       .  S
O3514     Mg3556   2.152       .  S
O3514     Mg3539   2.142       .  S
O3514      C3535   1.234       .  S
O3515      C3546   1.271       .  A
O3515     Mg3539   2.310       .  S
C3516      O3518   1.270       .  A
C3516      O3530   1.270       .  A
C3516      C4645   1.481       .  S
O3517      C3545   1.269       .  A
O3517     Mg3519   2.299       .  S
O3518     Mg3550   2.263       .  S
Mg3519     O3525   2.164       .  S
Mg3519     O3521   2.308       .  S
C3520      O3558   1.271       .  A
C3520      O3526   1.271       .  A
C3520      C4612   1.488       .  S
O3521      C3528   1.275       .  A
H3522      C3535   1.083       .  S
C3523      O3537   1.235       .  S
C3523      O3538   1.269       .  A
C3523      H3548   1.081       .  S
O3524      C3547   1.271       .  A
O3525     Mg3539   2.159       .  S
O3526     Mg3556   2.295       .  S
C3527      O3540   1.269       .  A
C3527      O3532   1.273       .  A
C3527      C4672   1.485       .  S
C3528      O3555   1.268       .  A
Mg3529     O3536   2.163       .  S
Mg3529     O3537   2.144       .  S
Mg3529     O3530   2.278       .  S
Mg3529     O3531   2.310       .  S
Mg3529     O3558   2.280       .  S
O3531      C3535   1.270       .  A
O3532     Mg3539   2.309       .  S
O3533      C3552   1.271       .  A
O3534      C3554   1.270       .  A
O3534     Mg3550   2.285       .  S
O3536     Mg3550   2.164       .  S
O3536      C3547   1.235       .  S
O3537     Mg3556   2.146       .  S
O3538     Mg3550   2.301       .  S
Mg3539     O3555   2.244       .  S
O3540     Mg3556   2.259       .  S
H3541      C3546   1.081       .  S
O3542     Mg3550   2.151       .  S
O3542      C3545   1.234       .  S
H3543      C3545   1.082       .  S
H3544      C3547   1.081       .  S
O3549     Mg3556   2.303       .  S
C3552      C4624   1.502       .  S
O3553      C3554   1.276       .  A
C3554      C4633   1.496       .  S
C3559      C4597   1.484       .  S
C3559      C3560   1.423       .  A
C3559      C3564   1.404       .  A
C3560      C4669   1.488       .  S
C3560      C3561   1.406       .  A
C3561      H3566   1.084       .  S
C3561      C3562   1.400       .  A
C3562      C4573   1.477       .  S
C3562      C3563   1.408       .  A
C3563      C4585   1.479       .  S
C3563      C3564   1.396       .  A
C3564      H3565   1.084       .  S
C3567      C4564   1.487       .  S
C3567      C3568   1.414       .  A
C3567      C3572   1.402       .  A
C3568      C4657   1.487       .  S
C3568      C3569   1.403       .  A
C3569      H3574   1.085       .  S
C3569      C3570   1.408       .  A
C3570      C4537   1.493       .  S
C3570      C3571   1.422       .  A
C3571      C4549   1.487       .  S
C3571      C3572   1.404       .  A
C3572      H3573   1.085       .  S
O3575     Mg3577   2.140       .  S
O3575     Mg3583   2.147       .  S
O3575      C3610   1.234       .  S
C3576      O3589   1.235       .  S
C3576      O3613   1.269       .  A
C3576      H3615   1.082       .  S
Mg3577     O3606   2.164       .  S
Mg3577     O3617   2.242       .  S
Mg3577     O3588   2.298       .  S
O3578     Mg3620   2.158       .  S
O3578     Mg3603   2.152       .  S
O3578      C3599   1.235       .  S
O3579      C3610   1.268       .  A
O3579     Mg3603   2.296       .  S
C3580      O3582   1.276       .  A
C3580      O3594   1.272       .  A
O3581      C3609   1.272       .  A
O3581     Mg3583   2.309       .  S
O3582     Mg3614   2.300       .  S
Mg3583     O3589   2.149       .  S
Mg3583     O3585   2.308       .  S
C3584      O3622   1.270       .  A
C3584      C4492   1.486       .  S
O3585      C3592   1.277       .  A
H3586      C3599   1.081       .  S
C3587      O3601   1.233       .  S
C3587      O3602   1.268       .  A
C3587      H3612   1.082       .  S
O3588      C3611   1.269       .  A
O3589     Mg3603   2.160       .  S
O3590     Mg3620   2.300       .  S
C3591      O3604   1.271       .  A
C3591      O3596   1.274       .  A
C3591      C4501   1.487       .  S
C3592      O3619   1.272       .  A
C3592      C4516   1.499       .  S
Mg3593     O3600   2.153       .  S
Mg3593     O3601   2.152       .  S
Mg3593     O3594   2.282       .  S
Mg3593     O3595   2.304       .  S
O3595      C3599   1.270       .  A
O3596     Mg3603   2.293       .  S
O3597      C3616   1.271       .  A
O3598      C3618   1.276       .  A
O3598     Mg3614   2.313       .  S
O3600     Mg3614   2.173       .  S
O3600      C3611   1.235       .  S
O3601     Mg3620   2.156       .  S
O3602     Mg3614   2.303       .  S
Mg3603     O3619   2.273       .  S
O3604     Mg3620   2.265       .  S
H3605      C3610   1.081       .  S
O3606     Mg3614   2.165       .  S
O3606      C3609   1.236       .  S
H3607      C3609   1.081       .  S
H3608      C3611   1.082       .  S
O3613     Mg3620   2.298       .  S
C3616      O3621   1.274       .  A
C3616      C4477   1.499       .  S
O3617      C3618   1.270       .  A
C3618      C4600   1.488   1_565  S
O3623     Mg3625   2.146       .  S
O3623     Mg3631   2.156       .  S
O3623      C3658   1.236       .  S
C3624      O3637   1.236       .  S
C3624      O3661   1.272       .  A
C3624      H3663   1.081       .  S
Mg3625     O3654   2.139       .  S
Mg3625     O3669   2.281       .  S
Mg3625     O3665   2.256       .  S
Mg3625     O3636   2.304       .  S
O3626     Mg3668   2.145       .  S
O3626     Mg3651   2.137       .  S
O3626      C3647   1.233       .  S
O3627      C3658   1.271       .  A
O3627     Mg3651   2.308       .  S
C3628      O3630   1.268       .  A
C3628      O3642   1.274       .  A
O3629      C3657   1.268       .  A
O3629     Mg3631   2.300       .  S
O3630     Mg3662   2.233       .  S
Mg3631     O3637   2.159       .  S
Mg3631     O3645   2.278       .  S
Mg3631     O3633   2.296       .  S
C3632      O3670   1.272       .  A
C3632      C4417   1.489       .  S
O3633      C3640   1.273       .  A
H3634      C3647   1.082       .  S
C3635      O3649   1.235       .  S
C3635      O3650   1.269       .  A
C3635      H3660   1.081   1_565  S
O3636      C3659   1.270       .  A
O3637     Mg3651   2.146       .  S
O3638     Mg3668   2.296   1_545  S
C3639      O3652   1.272       .  A
C3639      O3644   1.273       .  A
C3639      C4441   1.492       .  S
C3640      O3667   1.267       .  A
C3640      C4453   1.476       .  S
Mg3641     O3648   2.139       .  S
Mg3641     O3649   2.167       .  S
Mg3641     O3642   2.305       .  S
Mg3641     O3643   2.297       .  S
O3643      C3647   1.268       .  A
O3644     Mg3651   2.292       .  S
O3645      C3664   1.272       .  A
O3646      C3666   1.269       .  A
O3646     Mg3662   2.280       .  S
O3648     Mg3662   2.152       .  S
O3648      C3659   1.235       .  S
O3649     Mg3668   2.146       .  S
O3650     Mg3662   2.293       .  S
Mg3651     O3667   2.237       .  S
O3652     Mg3668   2.285       .  S
H3653      C3658   1.082       .  S
O3654     Mg3662   2.134       .  S
O3654      C3657   1.233       .  S
H3655      C3657   1.082       .  S
H3656      C3659   1.081       .  S
O3661     Mg3668   2.311       .  S
C3664      O3669   1.272       .  A
C3664      C4432   1.490       .  S
O3665      C3666   1.269       .  A
C3666      C4465   1.475       .  S
C3671      C4468   1.479       .  S
C3671      C3672   1.417       .  A
C3671      C3676   1.393       .  A
C3672      C4525   1.495       .  S
C3672      C3673   1.416       .  A
C3673      H3678   1.083       .  S
C3673      C3674   1.414       .  A
C3674      C4393   1.498       .  S
C3674      C3675   1.413       .  A
C3675      C4405   1.469       .  S
C3675      C3676   1.392       .  A
C3676      H3677   1.085       .  S
O3679     Mg3681   2.142   1_554  S
O3679      C3714   1.234       .  S
C3680      O3693   1.234   1_565  S
C3680      O3717   1.269       .  A
C3680      H3719   1.081       .  S
Mg3681     O3692   2.301       .  S
O3682     Mg3707   2.143       .  S
O3682      C3703   1.236       .  S
O3683      C3714   1.269       .  A
O3683     Mg3707   2.298       .  S
C3684      O3686   1.268       .  A
C3684      O3698   1.274       .  A
C3684      C4384   1.484       .  S
O3685      C3713   1.268   1_554  A
O3685     Mg3687   2.293   1_565  S
O3686     Mg3718   2.244       .  S
Mg3687     O3693   2.157       .  S
Mg3687     O3701   2.285       .  S
C3688      O3726   1.271       .  A
C3688      O3694   1.272   1_556  A
C3688      C4345   1.482       .  S
O3689      C3696   1.276       .  A
H3690      C3703   1.082       .  S
C3691      O3705   1.235       .  S
C3691      O3706   1.270       .  A
C3691      H3716   1.080   1_556  S
O3692      C3715   1.269       .  A
C3695      O3708   1.271       .  A
C3695      O3700   1.274       .  A
C3695      C4552   1.491       .  S
C3696      O3723   1.267       .  A
C3696      C4588   1.491       .  S
Mg3697     O3704   2.154       .  S
Mg3697     O3699   2.308       .  S
Mg3697     O3726   2.273       .  S
O3699      C3703   1.271   1_556  A
O3700     Mg3707   2.300       .  S
O3701      C3720   1.275   1_545  A
O3702      C3722   1.274       .  A
O3702     Mg3718   2.298       .  S
O3704      C3715   1.234       .  S
O3705     Mg3724   2.148   1_556  S
O3706     Mg3718   2.307       .  S
Mg3707     O3723   2.238       .  S
H3709      C3714   1.081   1_556  S
O3710     Mg3718   2.137       .  S
O3710      C3713   1.234       .  S
H3711      C3713   1.082       .  S
H3712      C3715   1.081       .  S
O3717     Mg3724   2.299       .  S
C3720      O3725   1.270   1_554  A
C3720      C4357   1.492       .  S
O3721      C3722   1.271       .  A
C3722      C4369   1.487       .  S
O3727     Mg3729   2.131   1_556  S
O3727     Mg3735   2.156       .  S
O3727      C3762   1.234       .  S
C3728      O3741   1.236       .  S
C3728      O3765   1.271       .  A
C3728      H3767   1.081       .  S
Mg3729     O3758   2.143       .  S
Mg3729     O3773   2.292       .  S
Mg3729     O3769   2.252       .  S
Mg3729     O3740   2.309       .  S
O3730     Mg3772   2.146       .  S
O3730     Mg3755   2.133       .  S
O3730      C3751   1.233       .  S
O3731      C3762   1.268       .  A
O3731     Mg3755   2.296       .  S
C3732      O3734   1.267       .  A
C3732      O3746   1.274       .  A
C3732      C4576   1.482       .  S
O3733      C3761   1.268   1_556  A
O3733     Mg3735   2.301       .  S
O3734     Mg3766   2.239       .  S
Mg3735     O3741   2.139       .  S
Mg3735     O3749   2.254       .  S
Mg3735     O3737   2.292       .  S
C3736      O3774   1.271       .  A
C3736      O3742   1.274   1_554  A
C3736      C4297   1.484       .  S
O3737      C3744   1.273       .  A
H3738      C3751   1.081       .  S
C3739      O3753   1.235       .  S
C3739      O3754   1.269       .  A
C3739      H3764   1.082   1_554  S
O3740      C3763   1.271       .  A
O3741     Mg3755   2.150       .  S
O3742     Mg3772   2.288       .  S
C3743      O3756   1.268       .  A
C3743      O3748   1.270       .  A
C3743      C4336   1.483       .  S
C3744      O3771   1.266       .  A
C3744      C4321   1.483       .  S
Mg3745     O3752   2.142       .  S
Mg3745     O3753   2.156       .  S
Mg3745     O3746   2.298       .  S
Mg3745     O3747   2.295       .  S
Mg3745     O3774   2.256       .  S
O3747      C3751   1.267   1_554  A
O3748     Mg3755   2.264       .  S
O3749      C3768   1.269       .  A
O3750      C3770   1.270       .  A
O3750     Mg3766   2.271       .  S
O3752     Mg3766   2.144       .  S
O3752      C3763   1.235       .  S
O3753     Mg3772   2.135   1_554  S
O3754     Mg3766   2.297       .  S
Mg3755     O3771   2.237       .  S
O3756     Mg3772   2.257       .  S
H3757      C3762   1.082   1_554  S
O3758     Mg3766   2.144       .  S
O3758      C3761   1.233       .  S
H3759      C3761   1.081       .  S
H3760      C3763   1.081       .  S
O3765     Mg3772   2.302       .  S
C3768      O3773   1.275   1_556  A
C3768      C4309   1.490       .  S
O3769      C3770   1.268       .  A
C3770      C4408   1.479       .  S
O3775     Mg3777   2.170   1_556  S
O3775      C3810   1.233       .  S
C3776      O3789   1.235       .  S
C3776      O3813   1.269       .  A
C3776      H3815   1.081       .  S
Mg3777     O3788   2.294       .  S
O3778     Mg3803   2.158       .  S
O3778      C3799   1.236       .  S
O3779      C3810   1.269       .  A
O3779     Mg3803   2.306       .  S
C3780      O3782   1.278       .  A
C3780      O3794   1.275       .  A
C3780      C4396   1.504       .  S
O3781      C3809   1.272   1_556  A
O3781     Mg3783   2.312       .  S
O3782     Mg3814   2.309       .  S
Mg3783     O3789   2.159       .  S
Mg3783     O3797   2.285       .  S
C3784      O3822   1.271       .  A
C3784      O3790   1.271   1_554  A
C3784      C4261   1.483       .  S
O3785      C3792   1.277       .  A
H3786      C3799   1.082       .  S
C3787      O3801   1.234       .  S
C3787      O3802   1.268       .  A
C3787      H3812   1.081   1_554  S
O3788      C3811   1.268       .  A
C3791      O3804   1.270       .  A
C3791      O3796   1.277       .  A
C3791      C4273   1.494       .  S
C3792      O3819   1.275       .  A
C3792      C4288   1.492       .  S
Mg3793     O3800   2.144       .  S
Mg3793     O3795   2.305       .  S
Mg3793     O3822   2.268       .  S
O3795      C3799   1.271   1_554  A
O3796     Mg3803   2.322       .  S
O3797      C3816   1.271       .  A
O3798      C3818   1.277       .  A
O3798     Mg3814   2.322       .  S
O3800      C3811   1.234       .  S
O3801     Mg3820   2.158   1_554  S
O3802     Mg3814   2.299       .  S
Mg3803     O3819   2.289       .  S
H3805      C3810   1.081   1_554  S
O3806     Mg3814   2.175       .  S
O3806      C3809   1.236       .  S
H3807      C3809   1.081       .  S
H3808      C3811   1.081       .  S
O3813     Mg3820   2.298       .  S
C3816      O3821   1.275   1_556  A
C3816      C4249   1.501       .  S
O3817      C3818   1.273       .  A
C3818      C4540   1.491       .  S
O3823     Mg3825   2.145       .  S
O3823     Mg3831   2.171       .  S
O3823      C3858   1.234       .  S
C3824      O3837   1.235       .  S
C3824      O3861   1.270       .  A
C3824      H3863   1.081       .  S
Mg3825     O3854   2.162       .  S
Mg3825     O3869   2.280       .  S
Mg3825     O3865   2.274       .  S
Mg3825     O3836   2.293       .  S
O3826     Mg3868   2.151       .  S
O3826     Mg3851   2.143       .  S
O3826      C3847   1.233       .  S
O3827      C3858   1.268       .  A
O3827     Mg3851   2.292       .  S
C3828      O3830   1.273       .  A
C3828      O3842   1.271       .  A
C3828      C4240   1.484       .  S
O3829      C3857   1.267       .  A
O3829     Mg3831   2.292       .  S
O3830     Mg3862   2.270       .  S
Mg3831     O3837   2.153       .  S
Mg3831     O3833   2.307       .  S
C3832      O3870   1.274       .  A
C3832      O3838   1.271       .  A
C3832      C4177   1.490       .  S
O3833      C3840   1.275       .  A
H3834      C3847   1.082       .  S
C3835      O3849   1.234       .  S
C3835      O3850   1.269       .  A
C3835      H3860   1.082       .  S
O3836      C3859   1.269       .  A
O3837     Mg3851   2.158       .  S
O3838     Mg3868   2.289       .  S
C3839      O3852   1.269       .  A
C3839      O3844   1.270       .  A
C3839      C4213   1.474       .  S
C3840      O3867   1.268       .  A
Mg3841     O3848   2.150       .  S
Mg3841     O3849   2.161       .  S
Mg3841     O3842   2.270       .  S
Mg3841     O3843   2.300       .  S
Mg3841     O3870   2.283       .  S
O3843      C3847   1.268       .  A
O3844     Mg3851   2.283       .  S
O3845      C3864   1.274       .  A
O3846      C3866   1.275       .  A
O3846     Mg3862   2.300       .  S
O3848     Mg3862   2.174       .  S
O3848      C3859   1.235       .  S
O3849     Mg3868   2.143       .  S
O3850     Mg3862   2.298       .  S
Mg3851     O3867   2.239       .  S
O3852     Mg3868   2.255       .  S
H3853      C3858   1.082       .  S
O3854     Mg3862   2.142       .  S
O3854      C3857   1.234       .  S
H3855      C3857   1.082       .  S
H3856      C3859   1.081       .  S
O3861     Mg3868   2.305       .  S
C3864      C4192   1.486       .  S
O3865      C3866   1.274       .  A
C3866      C4228   1.490       .  S
C3871      C4333   1.481       .  S
C3871      C3872   1.418       .  A
C3871      C3876   1.400       .  A
C3872      C4285   1.498       .  S
C3872      C3873   1.411       .  A
C3873      H3878   1.084       .  S
C3873      C3874   1.410       .  A
C3874      C4165   1.490       .  S
C3874      C3875   1.416       .  A
C3875      C4216   1.485       .  S
C3875      C3876   1.397       .  A
C3876      H3877   1.085       .  S
C3879      C4276   1.486       .  S
C3879      C3880   1.419       .  A
C3879      C3884   1.405       .  A
C3880      C4372   1.480       .  S
C3880      C3881   1.402       .  A
C3881      H3886   1.085       .  S
C3881      C3882   1.399       .  A
C3882      C4204   1.483       .  S
C3882      C3883   1.412       .  A
C3883      C4153   1.482       .  S
C3883      C3884   1.402       .  A
C3884      H3885   1.085       .  S
O3887     Mg3889   2.158       .  S
O3887     Mg3895   2.151       .  S
O3887      C3922   1.234       .  S
C3888      O3901   1.235       .  S
C3888      O3925   1.270       .  A
C3888      H3927   1.082       .  S
Mg3889     O3918   2.160       .  S
Mg3889     O3933   2.296       .  S
Mg3889     O3929   2.265       .  S
Mg3889     O3900   2.300       .  S
O3890     Mg3932   2.161       .  S
O3890     Mg3915   2.163       .  S
O3890      C3911   1.236       .  S
O3891      C3922   1.269       .  A
O3891     Mg3915   2.300       .  S
C3892      O3894   1.273       .  A
C3892      O3906   1.274       .  A
C3892      C4129   1.486       .  S
O3893      C3921   1.271       .  A
O3893     Mg3895   2.312       .  S
O3894     Mg3926   2.282       .  S
Mg3895     O3901   2.164       .  S
Mg3895     O3897   2.303       .  S
C3896      O3934   1.271       .  A
C3896      O3902   1.275       .  A
C3896      C4093   1.495       .  S
O3897      C3904   1.276       .  A
H3898      C3911   1.081       .  S
C3899      O3913   1.235       .  S
C3899      O3914   1.270       .  A
C3899      H3924   1.081       .  S
O3900      C3923   1.270       .  A
O3901     Mg3915   2.176       .  S
C3903      O3916   1.271       .  A
C3903      O3908   1.277       .  A
C3903      C4120   1.486       .  S
C3904      O3931   1.273       .  A
Mg3905     O3912   2.152       .  S
Mg3905     O3913   2.147       .  S
Mg3905     O3906   2.304       .  S
Mg3905     O3907   2.305       .  S
O3907      C3911   1.271       .  A
O3908     Mg3915   2.319       .  S
O3909      C3928   1.271       .  A
O3910      C3930   1.274       .  A
O3910     Mg3926   2.305       .  S
O3912     Mg3926   2.154       .  S
O3912      C3923   1.235       .  S
O3913     Mg3932   2.151       .  S
O3914     Mg3926   2.306       .  S
Mg3915     O3931   2.286       .  S
O3916     Mg3932   2.252       .  S
H3917      C3922   1.081       .  S
O3918     Mg3926   2.158       .  S
O3918      C3921   1.235       .  S
H3919      C3921   1.081       .  S
H3920      C3923   1.082       .  S
O3925     Mg3932   2.303       .  S
C3928      C4108   1.499       .  S
O3929      C3930   1.271       .  A
C3930      C4141   1.486       .  S
O3935     Mg3937   2.144       .  S
O3935     Mg3943   2.158       .  S
O3935      C3970   1.235       .  S
C3936      O3949   1.234       .  S
C3936      O3973   1.269       .  A
C3936      H3975   1.081       .  S
Mg3937     O3966   2.168       .  S
Mg3937     O3981   2.289       .  S
Mg3937     O3977   2.264       .  S
Mg3937     O3948   2.297       .  S
O3938     Mg3980   2.159       .  S
O3938     Mg3963   2.147       .  S
O3938      C3959   1.234       .  S
O3939      C3970   1.270       .  A
O3939     Mg3963   2.307       .  S
C3940      O3942   1.271       .  A
C3940      O3954   1.274       .  A
O3941      C3969   1.269       .  A
O3941     Mg3943   2.295       .  S
O3942     Mg3974   2.258       .  S
Mg3943     O3949   2.145       .  S
Mg3943     O3957   2.252       .  S
Mg3943     O3945   2.285       .  S
C3944      O3982   1.273       .  A
C3944      C4033   1.486       .  S
O3945      C3952   1.272       .  A
H3946      C3959   1.082       .  S
C3947      O3961   1.234       .  S
C3947      O3962   1.269       .  A
C3947      H3972   1.081       .  S
O3948      C3971   1.268       .  A
O3949     Mg3963   2.146       .  S
O3950     Mg3980   2.277   1_455  S
C3951      O3964   1.270       .  A
C3951      O3956   1.273       .  A
C3951      C4084   1.489       .  S
C3952      O3979   1.269       .  A
C3952      C4072   1.480       .  S
Mg3953     O3960   2.158       .  S
Mg3953     O3961   2.162       .  S
Mg3953     O3954   2.284       .  S
Mg3953     O3955   2.301       .  S
O3955      C3959   1.269       .  A
O3956     Mg3963   2.291       .  S
O3957      C3976   1.270       .  A
O3958      C3978   1.274       .  A
O3958     Mg3974   2.297       .  S
O3960     Mg3974   2.170       .  S
O3960      C3971   1.233       .  S
O3961     Mg3980   2.146       .  S
O3962     Mg3974   2.298       .  S
Mg3963     O3979   2.261       .  S
O3964     Mg3980   2.262       .  S
H3965      C3970   1.081       .  S
O3966     Mg3974   2.147       .  S
O3966      C3969   1.235       .  S
H3967      C3969   1.082       .  S
H3968      C3971   1.081       .  S
O3973     Mg3980   2.299       .  S
C3976      O3981   1.272       .  A
C3976      C4045   1.489       .  S
O3977      C3978   1.272       .  A
C3978      C4057   1.487       .  S
C3983      C4324   1.475       .  S
C3983      C3984   1.406       .  A
C3983      C3988   1.396       .  A
C3984      C4381   1.476       .  S
C3984      C3985   1.397       .  A
C3985      H3990   1.084       .  S
C3985      C3986   1.405       .  A
C3986      C4117   1.487       .  S
C3986      C3987   1.424       .  A
C3987      C4060   1.484       .  S
C3987      C3988   1.405       .  A
C3988      H3989   1.084       .  S
C3991      C4636   1.482       .  S
C3991      C3992   1.416       .  A
C3991      C3996   1.400       .  A
C3992      C4504   1.486       .  S
C3992      C3993   1.402       .  A
C3993      H3998   1.085       .  S
C3994      C4081   1.486       .  S
C3994      C3995   1.416       .  A
C3995      C4144   1.482       .  S
C3996      H3997   1.085       .  S
C3999      C4648   1.486       .  S
C3999      C4000   1.417       .  A
C3999      C4004   1.405       .  A
C4000      C4456   1.478       .  S
C4000      C4001   1.400       .  A
C4001      H4006   1.084       .  S
C4001      C4002   1.398       .  A
C4002      C4069   1.479       .  S
C4002      C4003   1.412       .  A
C4003      C4237   1.480       .  S
C4003      C4004   1.402       .  A
C4004      H4005   1.084       .  S
C4007      C4444   1.485       .  S
C4007      C4008   1.416       .  A
C4007      C4012   1.403   1_565  A
C4008      C4513   1.487       .  S
C4008      C4009   1.406       .  A
C4009      H4014   1.084       .  S
C4010      C4225   1.484       .  S
C4010      C4011   1.415       .  A
C4011      C4132   1.487       .  S
C4012      H4013   1.084       .  S
C4015      C4016   1.413       .  A
C4016      C4300   1.480       .  S
C4017      C4360   1.492       .  S
C4017      C4018   1.415   1_545  A
C4018      C4264   1.493       .  S
C4019      C4312   1.491       .  S
C4019      C4020   1.422       .  A
C4021      C4621   1.493       .  S
C4021      C4022   1.414       .  A
C4021      C4026   1.416       .  A
C4022      C4489   1.495       .  S
C4022      C4023   1.419       .  A
C4023      C4429   1.482       .  S
C4023      C4024   1.416       .  A
C4024      C4609   1.490       .  S
C4024      C4025   1.412       .  A
C4025      C4480   1.494       .  S
C4025      C4026   1.415       .  A
C4026      C4420   1.478       .  S
C4027      C4036   1.497       .  S
C4027      C4028   1.420       .  A
C4027      C4032   1.425       .  A
C4028      C4189   1.494       .  S
C4028      C4029   1.415       .  A
C4029      C4096   1.504       .  S
C4029      C4030   1.420       .  A
C4030      C4048   1.495       .  S
C4030      C4031   1.427       .  A
C4031      C4180   1.499       .  S
C4031      C4032   1.425       .  A
C4032      C4105   1.501       .  S
C4033      C4034   1.407       .  A
C4033      C4038   1.410       .  A
C4034      H4043   1.084       .  S
C4034      C4035   1.397       .  A
C4035      C4036   1.415       .  A
C4035      S4039   1.810       .  S
C4036      C4037   1.410       .  A
C4037      H4044   1.083       .  S
C4037      C4038   1.401       .  A
C4038      S4040   1.798       .  S
S4039      H4042   1.399       .  S
S4040      H4041   1.407       .  S
C4045      C4046   1.408       .  A
C4045      C4050   1.417       .  A
C4046      H4055   1.084       .  S
C4046      C4047   1.399       .  A
C4047      C4048   1.414       .  A
C4047      S4051   1.799       .  S
C4048      C4049   1.404       .  A
C4049      H4056   1.084       .  S
C4049      C4050   1.396       .  A
C4050      S4052   1.801       .  S
S4051      H4054   1.395       .  S
S4052      H4053   1.408       .  S
C4057      C4058   1.408       .  A
C4057      C4062   1.415       .  A
C4058      H4067   1.081       .  S
C4058      C4059   1.400       .  A
C4059      C4060   1.411       .  A
C4059      S4063   1.804       .  S
C4060      C4061   1.405       .  A
C4061      H4068   1.084       .  S
C4061      C4062   1.399       .  A
C4062      S4064   1.803       .  S
S4063      H4066   1.405       .  S
S4064      H4065   1.408       .  S
C4069      C4070   1.404       .  A
C4069      C4074   1.410       .  A
C4070      H4079   1.084       .  S
C4070      C4071   1.399       .  A
C4071      C4072   1.414       .  A
C4071      S4075   1.802       .  S
C4072      C4073   1.408       .  A
C4073      H4080   1.084       .  S
C4073      C4074   1.395       .  A
C4074      S4076   1.807       .  S
S4075      H4078   1.407       .  S
S4076      H4077   1.404       .  S
C4081      C4082   1.402   1_655  A
C4081      C4086   1.413       .  A
C4082      C4083   1.400   1_455  A
C4083      C4084   1.420       .  A
C4083      S4087   1.802   1_655  S
C4084      C4085   1.407       .  A
C4085      H4092   1.084       .  S
C4085      C4086   1.399       .  A
C4086      S4088   1.805       .  S
S4087      H4090   1.408   1_455  S
S4088      H4089   1.406       .  S
C4093      C4094   1.407       .  A
C4093      C4098   1.420       .  A
C4094      H4103   1.083       .  S
C4094      C4095   1.401       .  A
C4095      C4096   1.414       .  A
C4095      S4099   1.802       .  S
C4096      C4097   1.404       .  A
C4097      H4104   1.083       .  S
C4097      C4098   1.401       .  A
C4098      S4100   1.801       .  S
S4099      H4102   1.403       .  S
S4100      H4101   1.408       .  S
C4105      C4106   1.404       .  A
C4105      C4110   1.418       .  A
C4106      H4115   1.084       .  S
C4106      C4107   1.402       .  A
C4107      C4108   1.420       .  A
C4107      S4111   1.798       .  S
C4108      C4109   1.408       .  A
C4109      H4116   1.084       .  S
C4109      C4110   1.400       .  A
C4110      S4112   1.805       .  S
S4111      H4114   1.408       .  S
S4112      H4113   1.393       .  S
C4117      C4118   1.405       .  A
C4117      C4122   1.413       .  A
C4118      H4127   1.083       .  S
C4118      C4119   1.403       .  A
C4119      S4123   1.808       .  S
C4120      C4121   1.408       .  A
C4121      H4128   1.084       .  S
S4123      H4126   1.406       .  S
C4129      C4130   1.406       .  A
C4129      C4134   1.419       .  A
C4130      H4139   1.084       .  S
C4130      C4131   1.405       .  A
C4131      C4132   1.415       .  A
C4131      S4135   1.804       .  S
C4132      C4133   1.400       .  A
C4133      C4134   1.397       .  A
S4135      H4138   1.405       .  S
S4136      H4137   1.407   1_565  S
C4141      C4142   1.406       .  A
C4141      C4146   1.419       .  A
C4143      S4147   1.805       .  S
C4144      C4145   1.399       .  A
C4145      H4152   1.084       .  S
C4145      C4146   1.398       .  A
C4146      S4148   1.800       .  S
S4147      H4150   1.406       .  S
S4148      H4149   1.408       .  S
C4153      C4154   1.407       .  A
C4153      C4158   1.413       .  A
C4154      H4163   1.084       .  S
C4154      C4155   1.400       .  A
C4155      C4156   1.410       .  A
C4155      S4159   1.802       .  S
C4156      C4157   1.405       .  A
C4157      C4158   1.395       .  A
C4158      S4160   1.809       .  S
S4159      H4162   1.407       .  S
S4160      H4161   1.403       .  S
C4165      C4166   1.403       .  A
C4165      C4170   1.410       .  A
C4166      H4175   1.084       .  S
C4167      S4171   1.802   1_455  S
C4168      C4169   1.411       .  A
C4169      H4176   1.081       .  S
C4169      C4170   1.401       .  A
C4170      S4172   1.802       .  S
S4171      H4174   1.408       .  S
S4172      H4173   1.406       .  S
C4177      C4178   1.403       .  A
C4177      C4182   1.419       .  A
C4178      H4187   1.084       .  S
C4178      C4179   1.403       .  A
C4179      C4180   1.421       .  A
C4179      S4183   1.801       .  S
C4180      C4181   1.402       .  A
C4181      H4188   1.084       .  S
C4181      C4182   1.398       .  A
C4182      S4184   1.801       .  S
S4183      H4186   1.394       .  S
S4184      H4185   1.408       .  S
C4189      C4190   1.403       .  A
C4189      C4194   1.415       .  A
C4190      H4199   1.081       .  S
C4190      C4191   1.393       .  A
C4191      C4192   1.415       .  A
C4191      S4195   1.804       .  S
C4192      C4193   1.408       .  A
C4193      H4200   1.084       .  S
C4193      C4194   1.402       .  A
C4194      S4196   1.805       .  S
S4195      H4198   1.408       .  S
S4196      H4197   1.404       .  S
C4201      C4202   1.405       .  A
C4202      H4211   1.084       .  S
C4202      C4203   1.399       .  A
C4203      C4204   1.414       .  A
C4203      S4207   1.801       .  S
C4204      C4205   1.398       .  A
C4205      H4212   1.084   1_565  S
C4206      S4208   1.802       .  S
S4207      H4210   1.406       .  S
S4208      H4209   1.408       .  S
C4213      C4214   1.400       .  A
C4213      C4218   1.415       .  A
C4214      H4223   1.084       .  S
C4214      C4215   1.399       .  A
C4215      C4216   1.418       .  A
C4215      S4219   1.804       .  S
C4216      C4217   1.400       .  A
C4217      H4224   1.083       .  S
C4217      C4218   1.395       .  A
C4218      S4220   1.801       .  S
S4219      H4222   1.404       .  S
S4220      H4221   1.400       .  S
C4225      C4226   1.401       .  A
C4225      C4230   1.412       .  A
C4226      H4235   1.083       .  S
C4226      C4227   1.401       .  A
C4227      C4228   1.418       .  A
C4227      S4231   1.803       .  S
C4228      C4229   1.408       .  A
C4229      H4236   1.082       .  S
C4229      C4230   1.400       .  A
S4231      H4234   1.407       .  S
S4232      H4233   1.405       .  S
C4237      C4238   1.401       .  A
C4237      C4242   1.411       .  A
C4238      H4247   1.083       .  S
C4238      C4239   1.393       .  A
C4239      C4240   1.418       .  A
C4239      S4243   1.805       .  S
C4240      C4241   1.409       .  A
C4241      H4248   1.084       .  S
C4241      C4242   1.401       .  A
C4242      S4244   1.804       .  S
S4243      H4246   1.408       .  S
S4244      H4245   1.405       .  S
C4249      C4250   1.410   1_556  A
C4250      H4259   1.080       .  S
C4250      C4251   1.398       .  A
C4251      C4252   1.411   1_554  A
C4251      S4255   1.805       .  S
C4253      H4260   1.083       .  S
C4253      C4254   1.402       .  A
C4254      S4256   1.798       .  S
S4255      H4258   1.400       .  S
S4256      H4257   1.408       .  S
C4261      C4262   1.409   1_554  A
C4261      C4266   1.411       .  A
C4263      S4267   1.807       .  S
C4264      C4265   1.405       .  A
C4265      H4272   1.082       .  S
C4265      C4266   1.396       .  A
C4266      S4268   1.801       .  S
S4267      H4270   1.403       .  S
S4268      H4269   1.408       .  S
C4273      C4274   1.412       .  A
C4273      C4278   1.416       .  A
C4274      H4283   1.084       .  S
C4274      C4275   1.403       .  A
C4275      C4276   1.411       .  A
C4275      S4279   1.805       .  S
C4276      C4277   1.404       .  A
C4277      H4284   1.084       .  S
C4277      C4278   1.400       .  A
C4278      S4280   1.802       .  S
S4279      H4282   1.405       .  S
S4280      H4281   1.407       .  S
C4285      C4286   1.402       .  A
C4285      C4290   1.416       .  A
C4286      H4295   1.084       .  S
C4286      C4287   1.402       .  A
C4287      C4288   1.419       .  A
C4288      C4289   1.404       .  A
C4289      H4296   1.082       .  S
C4289      C4290   1.409       .  A
C4290      S4292   1.803       .  S
S4291      H4294   1.407   1_455  S
S4292      H4293   1.407       .  S
C4297      C4298   1.409   1_554  A
C4297      C4302   1.415       .  A
C4298      H4307   1.083       .  S
C4298      C4299   1.397       .  A
C4299      C4300   1.410   1_556  A
C4299      S4303   1.809       .  S
C4300      C4301   1.401       .  A
C4301      H4308   1.080       .  S
C4301      C4302   1.395       .  A
C4302      S4304   1.802       .  S
S4303      H4306   1.402       .  S
S4304      H4305   1.407       .  S
C4309      C4310   1.407   1_556  A
C4309      C4314   1.419       .  A
C4310      H4319   1.084       .  S
C4310      C4311   1.397       .  A
C4311      C4312   1.417       .  A
C4311      S4315   1.809       .  S
C4312      C4313   1.403   1_554  A
C4313      H4320   1.084       .  S
C4313      C4314   1.398       .  A
C4314      S4316   1.802       .  S
S4315      H4318   1.398       .  S
S4316      H4317   1.407       .  S
C4321      C4322   1.408       .  A
C4321      C4326   1.417       .  A
C4322      H4331   1.084       .  S
C4322      C4323   1.396       .  A
C4323      C4324   1.410       .  A
C4323      S4327   1.809       .  S
C4324      C4325   1.401       .  A
C4325      H4332   1.084       .  S
C4325      C4326   1.397       .  A
C4326      S4328   1.803       .  S
S4327      H4330   1.401       .  S
S4328      H4329   1.408       .  S
C4333      C4334   1.403       .  A
C4333      C4338   1.415       .  A
C4334      H4343   1.084       .  S
C4334      C4335   1.398       .  A
C4335      C4336   1.417       .  A
C4335      S4339   1.801       .  S
C4336      C4337   1.406       .  A
C4337      H4344   1.084       .  S
C4337      C4338   1.394       .  A
C4338      S4340   1.807       .  S
S4339      H4342   1.408       .  S
S4340      H4341   1.401       .  S
C4345      C4346   1.406   1_556  A
C4345      C4350   1.412       .  A
C4347      S4351   1.802       .  S
C4348      C4349   1.407       .  A
C4349      H4356   1.084       .  S
C4349      C4350   1.401       .  A
C4350      S4352   1.801       .  S
S4351      H4354   1.395       .  S
S4352      H4353   1.407       .  S
C4357      C4362   1.421   1_554  A
C4358      H4367   1.083       .  S
C4358      C4359   1.402       .  A
C4359      S4363   1.806       .  S
C4360      C4361   1.401   1_544  A
C4361      H4368   1.083       .  S
C4361      C4362   1.396       .  A
C4362      S4364   1.805       .  S
S4363      H4366   1.403       .  S
S4364      H4365   1.408       .  S
C4369      C4370   1.409       .  A
C4369      C4374   1.415       .  A
C4370      H4379   1.084       .  S
C4370      C4371   1.399       .  A
C4371      C4372   1.410       .  A
C4371      S4375   1.806       .  S
C4372      C4373   1.405       .  A
C4373      H4380   1.084       .  S
C4373      C4374   1.401       .  A
C4374      S4376   1.803   1_565  S
S4375      H4378   1.404       .  S
C4381      C4382   1.401       .  A
C4381      C4386   1.410       .  A
C4382      H4391   1.084       .  S
C4382      C4383   1.397       .  A
C4383      C4384   1.416       .  A
C4383      S4387   1.803       .  S
C4384      C4385   1.408       .  A
C4385      H4392   1.084       .  S
C4385      C4386   1.396       .  A
C4386      S4388   1.806       .  S
S4387      H4390   1.408       .  S
S4388      H4389   1.401       .  S
C4393      C4394   1.403       .  A
C4393      C4398   1.411       .  A
C4394      H4403   1.082       .  S
C4394      C4395   1.408       .  A
C4395      C4396   1.423       .  A
C4396      C4397   1.411       .  A
C4397      H4404   1.082       .  S
C4397      C4398   1.409       .  A
C4398      S4400   1.807       .  S
S4399      H4402   1.407       .  S
S4400      H4401   1.407       .  S
C4405      C4406   1.402       .  A
C4405      C4410   1.407       .  A
C4406      H4415   1.084       .  S
C4406      C4407   1.397       .  A
C4407      C4408   1.415       .  A
C4407      S4411   1.802       .  S
C4408      C4409   1.409       .  A
C4409      H4416   1.084       .  S
C4409      C4410   1.393       .  A
C4410      S4412   1.806       .  S
S4411      H4414   1.407       .  S
S4412      H4413   1.403       .  S
C4417      C4418   1.409       .  A
C4417      C4422   1.420       .  A
C4418      H4427   1.084       .  S
C4418      C4419   1.398       .  A
C4419      C4420   1.412       .  A
C4419      S4423   1.808       .  S
C4420      C4421   1.398       .  A
C4421      H4428   1.083       .  S
C4421      C4422   1.394       .  A
C4422      S4424   1.799       .  S
S4423      H4426   1.399       .  S
S4424      H4425   1.408       .  S
C4429      C4430   1.401       .  A
C4429      C4434   1.411       .  A
C4430      H4439   1.083       .  S
C4430      C4431   1.397       .  A
C4431      C4432   1.414       .  A
C4431      S4435   1.798       .  S
C4432      C4433   1.411       .  A
C4433      H4440   1.084       .  S
C4433      C4434   1.398       .  A
C4434      S4436   1.807       .  S
S4435      H4438   1.408       .  S
S4436      H4437   1.400       .  S
C4441      C4442   1.410       .  A
C4441      C4446   1.417   1_565  A
C4442      H4451   1.083       .  S
C4442      C4443   1.397       .  A
C4443      C4444   1.410       .  A
C4443      S4447   1.806       .  S
C4444      C4445   1.404   1_565  A
C4445      C4446   1.404       .  A
S4447      H4450   1.405       .  S
S4448      H4449   1.407       .  S
C4453      C4454   1.405       .  A
C4453      C4458   1.416       .  A
C4454      H4463   1.084       .  S
C4454      C4455   1.399       .  A
C4455      C4456   1.413       .  A
C4455      S4459   1.802       .  S
C4456      C4457   1.398       .  A
C4457      H4464   1.084       .  S
C4457      C4458   1.393       .  A
C4458      S4460   1.800       .  S
S4459      H4462   1.406       .  S
S4460      H4461   1.407       .  S
C4465      C4466   1.402       .  A
C4465      C4470   1.419       .  A
C4466      H4475   1.084       .  S
C4466      C4467   1.398       .  A
C4467      C4468   1.414       .  A
C4467      S4471   1.804       .  S
C4468      C4469   1.399       .  A
C4469      H4476   1.084       .  S
C4469      C4470   1.396       .  A
C4470      S4472   1.804       .  S
S4471      H4474   1.406       .  S
S4472      H4473   1.408       .  S
C4477      C4478   1.411       .  A
C4477      C4482   1.420       .  A
C4478      H4487   1.083       .  S
C4478      C4479   1.400       .  A
C4479      C4480   1.413       .  A
C4479      S4483   1.808       .  S
C4480      C4481   1.402       .  A
C4481      H4488   1.083       .  S
C4481      C4482   1.400       .  A
C4482      S4484   1.801       .  S
S4483      H4486   1.399       .  S
S4484      H4485   1.408       .  S
C4489      C4490   1.400       .  A
C4489      C4494   1.419       .  A
C4490      H4499   1.082       .  S
C4490      C4491   1.394       .  A
C4491      C4492   1.417       .  A
C4491      S4495   1.802       .  S
C4492      C4493   1.405       .  A
C4493      H4500   1.084       .  S
C4493      C4494   1.403       .  A
C4494      S4496   1.807       .  S
S4495      H4498   1.408       .  S
S4496      H4497   1.398       .  S
C4501      C4502   1.406       .  A
C4501      C4506   1.419       .  A
C4502      H4511   1.084       .  S
C4502      C4503   1.399       .  A
C4503      C4504   1.414       .  A
C4503      S4507   1.804       .  S
C4504      C4505   1.401       .  A
C4505      H4512   1.082       .  S
C4505      C4506   1.397       .  A
C4506      S4508   1.801       .  S
S4507      H4510   1.407       .  S
S4508      H4509   1.407       .  S
C4513      C4514   1.402       .  A
C4513      C4518   1.411       .  A
C4514      H4523   1.083       .  S
C4514      C4515   1.402       .  A
C4515      C4516   1.422       .  A
C4515      S4519   1.802       .  S
C4516      C4517   1.411       .  A
C4517      H4524   1.083       .  S
C4517      C4518   1.400       .  A
S4519      H4522   1.408       .  S
S4520      H4521   1.405       .  S
C4525      C4526   1.404       .  A
C4525      C4530   1.415       .  A
C4526      H4535   1.084       .  S
C4526      C4527   1.401       .  A
C4527      C4528   1.420       .  A
C4527      S4531   1.804       .  S
C4528      C4529   1.407       .  A
C4529      C4530   1.404       .  A
C4530      S4532   1.803       .  S
S4531      H4534   1.408       .  S
S4532      H4533   1.406       .  S
C4537      C4538   1.401       .  A
C4537      C4542   1.419       .  A
C4538      H4547   1.084       .  S
C4538      C4539   1.399       .  A
C4539      C4540   1.419       .  A
C4539      S4543   1.800       .  S
C4540      C4541   1.405       .  A
C4541      H4548   1.084       .  S
C4541      C4542   1.405       .  A
C4542      S4544   1.806       .  S
S4543      H4546   1.407       .  S
S4544      H4545   1.404       .  S
C4549      C4550   1.405       .  A
C4549      C4554   1.410       .  A
C4550      H4559   1.084       .  S
C4550      C4551   1.403       .  A
C4551      C4552   1.417       .  A
C4552      C4553   1.410       .  A
C4553      H4560   1.083       .  S
C4553      C4554   1.400       .  A
C4554      S4556   1.802       .  S
S4555      H4558   1.407       .  S
S4556      H4557   1.406       .  S
C4561      C4562   1.407       .  A
C4561      C4566   1.412       .  A
C4562      C4563   1.397       .  A
C4563      C4564   1.413       .  A
C4563      S4567   1.808       .  S
C4564      C4565   1.407       .  A
C4565      H4572   1.083       .  S
C4565      C4566   1.398       .  A
C4566      S4568   1.803       .  S
S4567      H4570   1.403       .  S
S4568      H4569   1.407       .  S
C4573      C4574   1.402       .  A
C4573      C4578   1.412       .  A
C4574      H4583   1.084       .  S
C4574      C4575   1.396       .  A
C4575      C4576   1.415       .  A
C4575      S4579   1.803       .  S
C4576      C4577   1.408       .  A
C4577      H4584   1.084       .  S
C4577      C4578   1.398       .  A
C4578      S4580   1.808       .  S
S4579      H4582   1.408       .  S
S4580      H4581   1.401       .  S
C4585      C4586   1.400       .  A
C4585      C4590   1.408       .  A
C4586      H4595   1.083       .  S
C4586      C4587   1.403       .  A
C4587      C4588   1.422       .  A
C4587      S4591   1.811       .  S
C4588      C4589   1.409       .  A
C4589      H4596   1.083       .  S
C4589      C4590   1.396       .  A
C4590      S4592   1.804       .  S
S4591      H4594   1.406       .  S
S4592      H4593   1.404       .  S
C4597      C4598   1.405       .  A
C4597      C4602   1.410       .  A
C4598      H4607   1.084       .  S
C4599      C4600   1.416   1_565  A
C4599      S4603   1.803       .  S
C4601      H4608   1.084       .  S
C4601      C4602   1.398       .  A
C4602      S4604   1.802       .  S
S4603      H4606   1.408       .  S
S4604      H4605   1.406       .  S
C4609      C4610   1.397       .  A
C4609      C4614   1.416       .  A
C4610      H4619   1.081       .  S
C4610      C4611   1.394       .  A
C4611      C4612   1.419       .  A
C4611      S4615   1.803       .  S
C4612      C4613   1.407       .  A
C4613      H4620   1.084       .  S
C4613      C4614   1.405       .  A
C4614      S4616   1.807       .  S
S4615      H4618   1.408       .  S
S4616      H4617   1.402       .  S
C4621      C4622   1.397       .  A
C4621      C4626   1.413       .  A
C4622      H4631   1.079       .  S
C4622      C4623   1.399       .  A
C4623      C4624   1.423       .  A
C4623      S4627   1.798       .  S
C4624      C4625   1.411       .  A
C4625      H4632   1.083       .  S
C4625      C4626   1.403       .  A
C4626      S4628   1.807       .  S
S4627      H4630   1.408       .  S
S4628      H4629   1.403       .  S
C4633      C4634   1.407       .  A
C4633      C4638   1.425       .  A
C4634      H4643   1.084       .  S
C4634      C4635   1.404       .  A
C4635      C4636   1.414       .  A
C4636      C4637   1.396       .  A
C4637      H4644   1.085       .  S
C4637      C4638   1.397       .  A
C4638      S4640   1.800       .  S
S4639      H4642   1.404       .  S
S4640      H4641   1.407       .  S
C4645      C4646   1.406       .  A
C4645      C4650   1.413       .  A
C4646      H4655   1.081       .  S
C4646      C4647   1.399       .  A
C4647      C4648   1.413       .  A
C4647      S4651   1.807       .  S
C4648      C4649   1.405       .  A
C4649      H4656   1.083       .  S
C4649      C4650   1.396       .  A
C4650      S4652   1.804       .  S
S4651      H4654   1.404       .  S
S4652      H4653   1.408       .  S
C4657      C4658   1.400       .  A
C4657      C4662   1.415       .  A
C4658      H4667   1.084       .  S
C4658      C4659   1.398       .  A
C4659      C4660   1.417       .  A
C4660      C4661   1.403       .  A
C4661      H4668   1.084       .  S
C4661      C4662   1.400       .  A
C4662      S4664   1.801       .  S
S4663      H4666   1.407       .  S
S4664      H4665   1.406       .  S
C4669      C4670   1.402       .  A
C4669      C4674   1.418       .  A
C4670      H4679   1.084       .  S
C4670      C4671   1.400       .  A
C4671      C4672   1.418       .  A
C4671      S4675   1.803       .  S
C4672      C4673   1.404       .  A
C4673      H4680   1.084       .  S
C4673      C4674   1.402       .  A
C4674      S4676   1.807       .  S
S4675      H4678   1.407       .  S
S4676      H4677   1.403       .  S
