geometry optimzed in LAMMPS
_audit_creation_date              2020-11-30 
_audit_creation_method            'lammps2cif' 
_symmetry_space_group_name_H-M    'P1' 
_symmetry_Int_Tables_number       1 
_symmetry_cell_setting            triclinic 
loop_ 
_symmetry_equiv_pos_as_xyz 
  x,y,z 
_cell_length_a                    32.01863367292383 
_cell_length_b                    32.13643322092878 
_cell_length_c                    25.81857389217456 
_cell_angle_alpha                 91.43246984524012 
_cell_angle_beta                  90.01091748582554 
_cell_angle_gamma                 119.83024027052095 
loop_ 
_atom_site_label 
_atom_site_type_symbol 
_atom_site_fract_x 
_atom_site_fract_y 
_atom_site_fract_z 
_atom_site_charge 
N1          N  0.83203217  0.76784214  0.77968318    -0.06890
N2          N  0.84511935  0.81368961  0.78368409    -0.59010
N3          N  0.75432325  0.66350166  0.82928597    -0.06570
N4          N  0.71735550  0.65211713  0.86014959    -0.61140
N5          N  0.79490855  0.68666916  0.85586313    -0.06170
N6          N  0.78627660  0.69079167  0.90493680    -0.58990
N7          N  0.79146773  0.74410458  0.75310954    -0.05850
N8          N  0.77596540  0.77319266  0.73849695    -0.61490
C9          C  0.80975756  0.81641869  0.75800650     0.95290
C10         C  0.73778982  0.66893672  0.90763080     0.95060
N11         N  0.74232343  0.56799455  0.70678606    -0.07080
N12         N  0.71482724  0.52078445  0.70662546    -0.59590
N13         N  0.75849405  0.67056295  0.65946916    -0.05200
N14         N  0.73961800  0.69051403  0.63065871    -0.60840
N15         N  0.77915257  0.65190655  0.63038364    -0.07110
N16         N  0.77454574  0.65900834  0.58086663    -0.59860
N17         N  0.72287397  0.58828416  0.73524848    -0.04840
N18         N  0.68182885  0.55561497  0.75458909    -0.60930
Mn19       Mn  0.75557120  0.66605144  0.74410815     1.18440
C20         C  0.67763550  0.51376213  0.73716520     0.97370
C21         C  0.75004379  0.68348480  0.58169369     0.98030
N22         N  0.89496354  0.69130020  0.85687068    -0.07130
N23         N  0.90616155  0.69629791  0.90641008    -0.63430
N24         N  0.95441004  0.75330179  0.75457688    -0.05930
N25         N  0.99840058  0.78550641  0.74142649    -0.64110
N26         N  0.93410560  0.77373354  0.78110652    -0.06630
N27         N  0.96413447  0.82030767  0.78674122    -0.63700
N28         N  0.91775834  0.67276787  0.83153489    -0.05530
N29         N  0.94616929  0.66640297  0.86399151    -0.64390
Mn30       Mn  0.86423000  0.73026143  0.81865631     1.10660
C31         C  0.93836659  0.68126082  0.91098022     0.98590
C32         C  0.00401790  0.82739383  0.76129880     0.98670
N33         N  0.88264791  0.65717040  0.63091886    -0.06640
N34         N  0.89465411  0.66348962  0.58141845    -0.62010
N35         N  0.88182447  0.59643196  0.73567299    -0.05960
N36         N  0.89482150  0.56627572  0.75320917    -0.58740
N37         N  0.84293736  0.57342457  0.70617722    -0.07270
N38         N  0.82871594  0.52714997  0.70341005    -0.61580
N39         N  0.92151227  0.67984920  0.66059297    -0.06260
N40         N  0.96031726  0.70242180  0.63215904    -0.58770
Mn41       Mn  0.81120949  0.61162372  0.66657242     1.20190
Mn42       Mn  0.91969676  0.67514123  0.74562944     1.10090
Cl43       Cl  0.83769315  0.67064436  0.74349116    -0.86740
C44         C  0.94322749  0.69246565  0.58297474     0.95600
C45         C  0.86156969  0.52313512  0.73273122     0.95390
N46         N  0.90628097  0.21191168  0.64737455    -0.06890
N47         N  0.92010741  0.21912920  0.59879723    -0.59010
N48         N  0.96109033  0.21481649  0.75774546    -0.06570
N49         N  0.00441071  0.22818884  0.77692792    -0.61140
N50         N  0.94394069  0.17368430  0.73189018    -0.06170
N51         N  0.97523391  0.15840627  0.73282767    -0.58990
N52         N  0.92332063  0.25300863  0.67327912    -0.05850
N53         N  0.94971410  0.28900175  0.64267493    -0.61490
C54         C  0.94623554  0.26728965  0.59597221     0.95290
C55         C  0.01255112  0.19221328  0.76163832     0.95060
N56         N  0.87839589  0.23608489  0.86915284    -0.07080
N57         N  0.88800802  0.24536291  0.91937540    -0.59590
N58         N  0.87854999  0.29083359  0.76056728    -0.05200
N59         N  0.89041988  0.33340954  0.74283284    -0.60840
N60         N  0.83790765  0.27325344  0.78607661    -0.07110
N61         N  0.82119190  0.30343941  0.78570465    -0.59860
N62         N  0.91879141  0.25436064  0.84306764    -0.04840
N63         N  0.95637948  0.27608141  0.87453015    -0.60930
Mn64       Mn  0.92117448  0.25429521  0.75859414     1.18440
C65         C  0.93681016  0.27072370  0.92171124     0.97370
C66         C  0.85403280  0.34060662  0.75818425     0.98030
N67         N  0.84502288  0.07385691  0.72501394    -0.07130
N68         N  0.85858907  0.04135221  0.72079478    -0.63430
N69         N  0.76690745  0.09424510  0.66410942    -0.05930
N70         N  0.73337247  0.06453089  0.63044369    -0.64110
N71         N  0.80926801  0.11462327  0.64198580    -0.06630
N72         N  0.80506295  0.10037308  0.59321583    -0.63700
N73         N  0.80320829  0.05567324  0.74802013    -0.05530
N74         N  0.78781911  0.01065999  0.76007733    -0.64390
Mn75       Mn  0.87644229  0.14343415  0.68640490     1.10660
C76         C  0.82302009  0.00213221  0.74330277     0.98590
C77         C  0.75793066  0.06886693  0.58615567     0.98670
N78         N  0.74127964  0.17506722  0.78064730    -0.06640
N79         N  0.71086209  0.19140854  0.77865866    -0.62010
N80         N  0.76145294  0.09442294  0.83462777    -0.05960
N81         N  0.74219332  0.05597682  0.86299966    -0.58740
N82         N  0.77797517  0.13362004  0.86410616    -0.07270
N83         N  0.76961704  0.12204471  0.91355208    -0.61580
N84         N  0.72533042  0.13569947  0.75171349    -0.06260
N85         N  0.68364594  0.12444971  0.72986261    -0.58770
Mn86       Mn  0.80834451  0.20476691  0.82681156     1.20190
Mn87       Mn  0.76308332  0.09444141  0.74967017     1.10090
Cl88       Cl  0.84230074  0.17420294  0.75556140    -0.86740
C89         C  0.67494690  0.15954241  0.74679102     0.95600
C90         C  0.74712255  0.07325051  0.91212971     0.95390
N91         N  0.13285142  0.77737891  0.36030896    -0.06890
N92         N  0.12057670  0.77214412  0.40980737    -0.59010
N93         N  0.13929754  0.71991492  0.25158230    -0.06570
N94         N  0.12900742  0.67686972  0.23394756    -0.61140
N95         N  0.17860004  0.73902142  0.28066070    -0.06170
N96         N  0.19611000  0.70969045  0.28293341    -0.58990
N97         N  0.09385757  0.75765408  0.33062432    -0.05850
N98         N  0.05471064  0.73882467  0.35889142    -0.61490
C99         C  0.07162312  0.74779104  0.40807580     0.95290
C100        C  0.16519527  0.67141784  0.25330387     0.95060
N101        N  0.11687215  0.79535060  0.13545807    -0.07080
N102        N  0.10421360  0.78714638  0.08612877    -0.59590
N103        N  0.05599036  0.79412876  0.24137873    -0.05200
N104        N  0.01346905  0.78243359  0.26059005    -0.60840
N105        N  0.07347119  0.83448705  0.21660105    -0.07110
N106        N  0.04322633  0.85114104  0.21844754    -0.59860
N107        N  0.09798671  0.75466954  0.15999001    -0.04840
N108        N  0.07126099  0.71830410  0.12749817    -0.60930
Mn109      Mn  0.09596333  0.75528786  0.24566794     1.18440
C110        C  0.07618712  0.73895538  0.08104560     0.97370
C111        C  0.00616644  0.81865082  0.24649544     0.98030
N112        N  0.27484252  0.83710687  0.28348877    -0.07130
N113        N  0.30619621  0.82174738  0.28453393    -0.63430
N114        N  0.25147668  0.91717382  0.33658971    -0.05930
N115        N  0.27421242  0.95580104  0.36662831    -0.64110
N116        N  0.23410637  0.87840538  0.36435997    -0.06630
N117        N  0.24486924  0.89050520  0.41418930    -0.63700
N118        N  0.29169044  0.87634641  0.25642199    -0.05530
N119        N  0.33500292  0.88871888  0.23906313    -0.64390
Mn120      Mn  0.20524019  0.80752401  0.32389925     1.10660
C121        C  0.34338487  0.85420155  0.25658223     0.98590
C122        C  0.26946863  0.93930439  0.41499929     0.98670
N123        N  0.16932369  0.93356334  0.21918721    -0.06640
N124        N  0.15299737  0.96386486  0.21581041    -0.62010
N125        N  0.25333648  0.91617632  0.16583847    -0.05960
N126        N  0.28928828  0.94686128  0.13721826    -0.58740
N127        N  0.21281335  0.89641648  0.13870338    -0.07270
N128        N  0.22068485  0.91301119  0.09137507    -0.61580
N129        N  0.20960542  0.95293571  0.24650262    -0.06260
N130        N  0.22138623  0.99695371  0.26196819    -0.58770
Mn131      Mn  0.14282256  0.86479596  0.17687094     1.20190
Mn132      Mn  0.25235934  0.91622659  0.25143127     1.10090
Cl133      Cl  0.17423012  0.83602724  0.24951139    -0.86740
C134        C  0.18557818  0.00340648  0.24299908     0.95600
C135        C  0.26849604  0.94393947  0.09065273     0.95390
N136        N  0.44615247  0.27127954  0.79030169    -0.06890
N137        N  0.49287473  0.30217504  0.79059189    -0.59010
N138        N  0.34664958  0.25436627  0.84400184    -0.06570
N139        N  0.32913077  0.27581374  0.87346347    -0.61140
N140        N  0.36810687  0.23686028  0.87242573    -0.06170
N141        N  0.36596004  0.24667045  0.92218270    -0.58990
N142        N  0.42320964  0.28693242  0.76156914    -0.05850
N143        N  0.45368146  0.32860913  0.74224257    -0.61490
C144        C  0.49712037  0.33795940  0.76034736     0.95290
C145        C  0.34169475  0.27128065  0.92191732     0.95060
N146        N  0.24134442  0.17162158  0.73419628    -0.07080
N147        N  0.19513668  0.15822647  0.73520056    -0.59590
N148        N  0.33997729  0.24733946  0.67306289    -0.05200
N149        N  0.34418262  0.28163046  0.64229190    -0.60840
N150        N  0.31585170  0.20523879  0.64881597    -0.07110
N151        N  0.30389547  0.21036818  0.60147062    -0.59860
N152        N  0.26655686  0.21329555  0.75864384    -0.04840
N153        N  0.23833735  0.22900970  0.77687142    -0.60930
Mn154      Mn  0.34473774  0.25138663  0.75910081     1.18440
C155        C  0.19381754  0.19443907  0.76202414     0.97370
C156        C  0.32193676  0.25803680  0.59749267     0.98030
N157        N  0.36608619  0.13464539  0.87359713    -0.07130
N158        N  0.36489332  0.12466840  0.92332342    -0.63430
N159        N  0.42178778  0.13351780  0.76313293    -0.05930
N160        N  0.45320187  0.12412214  0.74021651    -0.64110
N161        N  0.44443888  0.17378917  0.79069202    -0.06630
N162        N  0.49132441  0.19254826  0.78692145    -0.63700
N163        N  0.34371712  0.09449984  0.84559977    -0.05530
N164        N  0.32704248  0.05688157  0.87511346    -0.64390
Mn165      Mn  0.40688254  0.20439507  0.83366651     1.10660
C166        C  0.34060442  0.07587947  0.92331889     0.98590
C167        C  0.49663038  0.16166369  0.75509129     0.98670
N168        N  0.31598535  0.10580083  0.65116751    -0.06640
N169        N  0.30908540  0.08998775  0.60267554    -0.62010
N170        N  0.26291936  0.05387637  0.75895020    -0.05960
N171        N  0.23237607  0.01014980  0.77415384    -0.58740
N172        N  0.23974859  0.07183713  0.73436900    -0.07270
N173        N  0.19318613  0.04084753  0.73238549    -0.61580
N174        N  0.33960074  0.08874745  0.67655733    -0.06260
N175        N  0.34876446  0.06078370  0.64582392    -0.58770
Mn176      Mn  0.27787427  0.13836057  0.69160025     1.20190
Mn177      Mn  0.34238243  0.09190892  0.76112388     1.10090
Cl178      Cl  0.34295643  0.17152312  0.76133498    -0.86740
C179        C  0.32983662  0.06214290  0.59958678     0.95600
C180        C  0.18898397  0.00253639  0.75736195     0.95390
N181        N  0.07058202  0.23939932  0.22640297    -0.06890
N182        N  0.04000426  0.19284449  0.22464636    -0.59010
N183        N  0.09280776  0.34045286  0.17323666    -0.06570
N184        N  0.06347672  0.34582027  0.14131612    -0.61140
N185        N  0.11401107  0.32021270  0.14808968    -0.06170
N186        N  0.10099929  0.31302961  0.09903046    -0.58990
N187        N  0.05277865  0.26211400  0.25311016    -0.05850
N188        N  0.00949724  0.23147653  0.26997782    -0.61490
C189        C  0.00197080  0.18831391  0.25190059     0.95290
C190        C  0.06916214  0.32846872  0.09493318     0.95060
N191        N  0.17665202  0.44041926  0.29291372    -0.07080
N192        N  0.19536741  0.48741641  0.29240119    -0.59590
N193        N  0.09309225  0.33960918  0.34406763    -0.05200
N194        N  0.05516797  0.32165546  0.37421833    -0.60840
N195        N  0.13310127  0.36004036  0.37205243    -0.07110
N196        N  0.12295469  0.35637119  0.42192248    -0.59860
N197        N  0.13677060  0.41903892  0.26470789    -0.04840
N198        N  0.12759001  0.45095284  0.24443605    -0.60930
Mn199      Mn  0.09284946  0.34074808  0.25901064     1.18440
C200        C  0.16486442  0.49332799  0.26130198     0.97370
C201        C  0.07418208  0.33198544  0.42269192     0.98030
N202        N  0.20880507  0.31622874  0.14888866    -0.07130
N203        N  0.21464025  0.30947502  0.09976930    -0.63430
N204        N  0.20670231  0.25642505  0.25243117    -0.05930
N205        N  0.21740622  0.22319329  0.26486037    -0.64110
N206        N  0.16596348  0.23665353  0.22602153    -0.06630
N207        N  0.14818060  0.19012232  0.22012211    -0.63700
N208        N  0.25018723  0.33550092  0.17403289    -0.05530
N209        N  0.28480230  0.34124916  0.14180923    -0.64390
Mn210      Mn  0.13986186  0.27821780  0.18714407     1.10660
C211        C  0.26187912  0.32500928  0.09513634     0.98590
C212        C  0.18025064  0.18179356  0.24453299     0.98670
N213        N  0.23223286  0.35697320  0.37322678    -0.06640
N214        N  0.23994785  0.35438277  0.42318958    -0.62010
N215        N  0.28990100  0.41449383  0.26575472    -0.05960
N216        N  0.33176412  0.44531299  0.24580404    -0.58740
N217        N  0.27284410  0.43736098  0.29372822    -0.07270
N218        N  0.30266113  0.48402129  0.29337553    -0.61580
N219        N  0.24972652  0.33446908  0.34520621    -0.06260
N220        N  0.26972251  0.31641566  0.37536052    -0.58770
Mn221      Mn  0.20408693  0.39954883  0.33476594     1.20190
Mn222      Mn  0.25056905  0.33541751  0.25962624     1.10090
Cl223      Cl  0.17190030  0.33848170  0.26039088    -0.86740
C224        C  0.26358903  0.32915697  0.42379987     0.95600
C225        C  0.33896829  0.48860215  0.26290724     0.95390
N226        N  0.77419521  0.83318749  0.21860033    -0.06890
N227        N  0.82066787  0.84768331  0.22020679    -0.59010
N228        N  0.66985176  0.75527548  0.15894652    -0.06570
N229        N  0.65724529  0.71823357  0.12671088    -0.61140
N230        N  0.69475630  0.79574417  0.13451590    -0.06170
N231        N  0.69900865  0.78674285  0.08525738    -0.58990
N232        N  0.74971611  0.79229808  0.24210815    -0.05850
N233        N  0.77909490  0.77823784  0.26036256    -0.61490
C234        C  0.82331271  0.81307052  0.24639220     0.95290
C235        C  0.67500368  0.73830164  0.08062348     0.95060
N236        N  0.57108983  0.73897422  0.27550115    -0.07080
N237        N  0.52444440  0.70982968  0.27894201    -0.59590
N238        N  0.67343275  0.75728103  0.32890443    -0.05200
N239        N  0.69368694  0.73924666  0.35850413    -0.60840
N240        N  0.65315396  0.77682162  0.35717254    -0.07110
N241        N  0.65884795  0.77170516  0.40704583    -0.59860
N242        N  0.59110185  0.71867037  0.24818426    -0.04840
N243        N  0.55810502  0.67456270  0.23327919    -0.60930
Mn244      Mn  0.67051698  0.75463047  0.24411473     1.18440
C245        C  0.51658769  0.66974024  0.25277371     0.97370
C246        C  0.68429943  0.74814670  0.40718760     0.98030
N247        N  0.70118128  0.89716408  0.13592606    -0.07130
N248        N  0.71019542  0.91144214  0.08788822    -0.63430
N249        N  0.75508905  0.95252825  0.24595766    -0.05930
N250        N  0.78591692  0.99559089  0.26501197    -0.64110
N251        N  0.77796360  0.93363185  0.22141677    -0.06630
N252        N  0.82486993  0.96373669  0.22312755    -0.63700
N253        N  0.67875004  0.91679398  0.15995904    -0.05530
N254        N  0.67280255  0.94530357  0.12811070    -0.64390
Mn255      Mn  0.73760937  0.86508710  0.17705001     1.10660
C256        C  0.69198790  0.94096053  0.08266131     0.98590
C257        C  0.82945682  0.00206461  0.25105922     0.98670
N258        N  0.65406701  0.87793271  0.35785627    -0.06640
N259        N  0.65688626  0.88888587  0.40794825    -0.62010
N260        N  0.59629690  0.87603760  0.24811869    -0.05960
N261        N  0.56495131  0.88768665  0.22995798    -0.58740
N262        N  0.57394909  0.83669656  0.27503266    -0.07270
N263        N  0.52716462  0.82041529  0.27483986    -0.61580
N264        N  0.67610770  0.91722103  0.33095751    -0.06260
N265        N  0.69484398  0.95557710  0.36197954    -0.58770
Mn266      Mn  0.61260668  0.80739910  0.31793106     1.20190
Mn267      Mn  0.67598539  0.91645193  0.24591992     1.10090
Cl268      Cl  0.67397151  0.83590661  0.24612259    -0.86740
C269        C  0.68219720  0.93745202  0.40961064     0.95600
C270        C  0.52189658  0.85197085  0.24597535     0.95390
C271        C  0.96141982  0.10055458  0.26134814    -0.06550
C272        C  0.95702863  0.14175727  0.25752674    -0.00630
C273        C  0.91053120  0.13681792  0.25476663    -0.09200
C274        C  0.87015689  0.09044056  0.25466180    -0.06570
C275        C  0.87453752  0.04909604  0.25624643    -0.00640
C276        C  0.92095860  0.05410084  0.26102782    -0.09110
C277        C  0.92818557  0.01114088  0.26668403     0.61270
H278        H  0.99719623  0.10506645  0.26377191     0.11970
H279        H  0.83449762  0.08608222  0.25142910     0.11980
C280        C  0.90310057  0.17970423  0.24937187     0.61510
F281        F  0.97548712  0.02504557  0.27924279    -0.23660
F282        F  0.91656141  0.98465936  0.22064468    -0.20990
F283        F  0.89941795  0.98253819  0.30572904    -0.20670
F284        F  0.92763754  0.20562581  0.20679440    -0.20720
F285        F  0.91964903  0.20872528  0.29363381    -0.21040
F286        F  0.85500349  0.16598849  0.24255129    -0.23710
C287        C  0.40272151  0.56349083  0.30251838    -0.06550
C288        C  0.38428351  0.53461532  0.25756188    -0.00630
C289        C  0.40864088  0.55065618  0.21010176    -0.09200
C290        C  0.45213077  0.59497831  0.20993654    -0.06570
C291        C  0.47065390  0.62373983  0.25523434    -0.00640
C292        C  0.44551030  0.60779029  0.30251131    -0.09110
C293        C  0.46392865  0.63633877  0.35344530     0.61270
H294        H  0.38324798  0.55068036  0.33823228     0.11970
H295        H  0.47169520  0.60784899  0.17428674     0.11980
C296        C  0.38781073  0.52218920  0.15977595     0.61510
F297        F  0.43792679  0.61026759  0.39534086    -0.23660
F298        F  0.45992628  0.67721031  0.35212374    -0.20990
F299        F  0.51152081  0.64894199  0.36186898    -0.20670
F300        F  0.34093429  0.51262484  0.15303046    -0.20720
F301        F  0.38823417  0.47943397  0.16097055    -0.21040
F302        F  0.41392284  0.54706368  0.11735858    -0.23710
C303        C  0.34189484  0.31525411  0.52588448    -0.06550
C304        C  0.30663024  0.27902062  0.55586259    -0.00630
C305        C  0.25719820  0.26294982  0.54533671    -0.09200
C306        C  0.24483510  0.28203302  0.50326398    -0.06570
C307        C  0.27993586  0.31583179  0.47123142    -0.00640
C308        C  0.32933313  0.33373367  0.48321823    -0.09110
C309        C  0.36847794  0.37246816  0.45124799     0.61270
H310        H  0.37936394  0.32780869  0.53510294     0.11970
H311        H  0.20736340  0.26919509  0.49369435     0.11980
C312        C  0.21738920  0.22576402  0.57825258     0.61510
F313        F  0.41389588  0.38807517  0.47213486    -0.23660
F314        F  0.36142139  0.41151931  0.44928459    -0.20990
F315        F  0.36715334  0.35493048  0.40148809    -0.20670
F316        F  0.22707128  0.23909147  0.63015351    -0.20720
F317        F  0.21396548  0.18150904  0.56994868    -0.21040
F318        F  0.17303524  0.22099686  0.56624816    -0.23710
C319        C  0.27495232  0.27148876  0.96641467    -0.06550
C320        C  0.32377475  0.28553382  0.96772852    -0.00630
C321        C  0.35347598  0.31572589  0.00870454    -0.09200
C322        C  0.33207523  0.32866445  0.04912050    -0.06570
C323        C  0.28245703  0.31343836  0.04871706    -0.00640
C324        C  0.25340927  0.28504608  0.00545184    -0.09110
C325        C  0.19981438  0.26797122  0.99922420     0.61270
H326        H  0.25345896  0.24912423  0.93387663     0.11970
H327        H  0.35413361  0.35085546  0.08141021     0.11980
C328        C  0.40750448  0.33568799  0.00843648     0.61510
F329        F  0.18121972  0.24453299  0.95195816    -0.23660
F330        F  0.19233337  0.30682842  0.00178956    -0.20990
F331        F  0.17415676  0.23590427  0.03734716    -0.20670
F332        F  0.42628499  0.36013720  0.96326966    -0.20720
F333        F  0.41753876  0.29864817  0.01118213    -0.21040
F334        F  0.43031077  0.36725453  0.04991169    -0.23710
C335        C  0.32115188  0.97688843  0.01487229    -0.06550
C336        C  0.29085763  0.98094521  0.05115930    -0.00630
C337        C  0.28088231  0.01920816  0.04829077    -0.09200
C338        C  0.30076522  0.05164646  0.00776296    -0.06570
C339        C  0.32864333  0.04591140  0.96956103    -0.00640
C340        C  0.33989715  0.00849647  0.97341922    -0.09110
C341        C  0.37148576  0.00180945  0.93404307     0.61270
H342        H  0.32845036  0.94755595  0.01813514     0.11970
H343        H  0.29246931  0.08026034  0.00393680     0.11980
C344        C  0.24856873  0.02520941  0.08727957     0.61510
F345        F  0.38406930  0.96855478  0.94972965    -0.23660
F346        F  0.41345606  0.04492438  0.92753460    -0.20990
F347        F  0.34726107  0.98571307  0.88705706    -0.20670
F348        F  0.26592891  0.02776891  0.13699243    -0.20720
F349        F  0.20226535  0.98668836  0.08277144    -0.21040
F350        F  0.24643863  0.06659372  0.07955587    -0.23710
C351        C  0.31590684  0.04850152  0.50695700    -0.06550
C352        C  0.32381189  0.03155190  0.55286115    -0.00630
C353        C  0.31787340  0.98459199  0.55296422    -0.09200
C354        C  0.30135795  0.95562488  0.50689900    -0.06570
C355        C  0.28945599  0.97173206  0.46205692    -0.00640
C356        C  0.29632118  0.01895984  0.46293856    -0.09110
C357        C  0.27745699  0.03666076  0.42046200     0.61270
H358        H  0.32209575  0.08484978  0.50690511     0.11970
H359        H  0.29638818  0.91974459  0.50599581     0.11980
C360        C  0.32750374  0.96455462  0.60119620     0.61510
F361        F  0.27723935  0.07839544  0.43486168    -0.23660
F362        F  0.23036259  0.00160926  0.40951775    -0.20990
F363        F  0.30587290  0.04619925  0.37715276    -0.20670
F364        F  0.29689700  0.96236142  0.64014301    -0.20720
F365        F  0.37478472  0.99364394  0.61741018    -0.21040
F366        F  0.32022133  0.91873567  0.59228457    -0.23710
C367        C  0.21407298  0.13253456  0.27308475    -0.06550
C368        C  0.17833074  0.13464925  0.24424645    -0.00630
C369        C  0.14351891  0.09272112  0.21629122    -0.09200
C370        C  0.14781037  0.05120239  0.21703685    -0.06570
C371        C  0.18417625  0.04933055  0.24559422    -0.00640
C372        C  0.21700929  0.09067496  0.27534215    -0.09110
C373        C  0.25171392  0.08969107  0.31371431     0.61270
H374        H  0.23973527  0.16416148  0.29505800     0.11970
H375        H  0.12233618  0.01952710  0.19503205     0.11980
C376        C  0.10201625  0.09081064  0.18548746     0.61510
F377        F  0.27494190  0.13112150  0.34451437    -0.23660
F378        F  0.28650138  0.08360168  0.28860277    -0.20990
F379        F  0.22487289  0.05222884  0.34542234    -0.20670
F380        F  0.11975349  0.12309062  0.14585218    -0.20720
F381        F  0.07397798  0.10147921  0.21783647    -0.21040
F382        F  0.07223911  0.04580544  0.16319906    -0.23710
C383        C  0.14833657  0.55376115  0.29934194    -0.06550
C384        C  0.16550732  0.53896086  0.25709265    -0.00630
C385        C  0.18156935  0.56691220  0.21239138    -0.09200
C386        C  0.18059203  0.61022270  0.21184563    -0.06570
C387        C  0.16382401  0.62520896  0.25454443    -0.00640
C388        C  0.14682855  0.59654005  0.29874388    -0.09110
C389        C  0.12657993  0.61082130  0.34474088     0.61270
H390        H  0.13586278  0.53124861  0.33281091     0.11970
H391        H  0.19322630  0.63282770  0.17847983     0.11980
C392        C  0.20002456  0.55102994  0.16624032     0.61510
F393        F  0.10864908  0.57591786  0.38179252    -0.23660
F394        F  0.08940658  0.61771860  0.32827620    -0.20990
F395        F  0.16227549  0.65280970  0.36792310    -0.20670
F396        F  0.16390443  0.50733497  0.14668383    -0.20720
F397        F  0.23879422  0.54620287  0.18147098    -0.21040
F398        F  0.21483088  0.58375066  0.12695316    -0.23710
C399        C  0.39125377  0.81812526  0.22379461    -0.06550
C400        C  0.38983943  0.85532455  0.25189352    -0.00630
C401        C  0.43203812  0.89166548  0.27708357    -0.09200
C402        C  0.47513569  0.89056069  0.27160166    -0.06570
C403        C  0.47659138  0.85332316  0.24383684    -0.00640
C404        C  0.43420343  0.81628458  0.21961906    -0.09110
C405        C  0.43470062  0.77555290  0.18908516     0.61270
H406        H  0.35832680  0.79033550  0.20556685     0.11970
H407        H  0.50779316  0.91780240  0.29080947     0.11980
C408        C  0.43087298  0.92979225  0.31202226     0.61510
F409        F  0.39050932  0.74506580  0.16569547    -0.23660
F410        F  0.44579889  0.74881657  0.22165479    -0.20990
F411        F  0.46886273  0.79411099  0.15073662    -0.20670
F412        F  0.39633623  0.90805416  0.34954893    -0.20720
F413        F  0.41997092  0.95884015  0.28312490    -0.21040
F414        F  0.47467789  0.95862439  0.33695357    -0.23710
C415        C  0.91770673  0.77374269  0.25141533    -0.06550
C416        C  0.96014545  0.81838429  0.25370514    -0.00630
C417        C  0.95726699  0.86075111  0.26076931    -0.09200
C418        C  0.91155010  0.85698489  0.26019948    -0.06570
C419        C  0.86899652  0.81245648  0.25427272    -0.00640
C420        C  0.87196410  0.76976284  0.25167109    -0.09110
C421        C  0.82770006  0.72021569  0.24655980     0.61270
H422        H  0.92070505  0.74173332  0.24724465     0.11970
H423        H  0.90878964  0.88921013  0.26330028     0.11980
C424        C  0.00186114  0.90959383  0.26982694     0.61510
F425        F  0.83949760  0.68431007  0.24140725    -0.23660
F426        F  0.80132619  0.71761958  0.20314320    -0.20990
F427        F  0.79972312  0.71120142  0.29014271    -0.20670
F428        F  0.02697781  0.92520932  0.22427836    -0.20720
F429        F  0.03122517  0.90671312  0.30722295    -0.21040
F430        F  0.99012558  0.94360367  0.28695583    -0.23710
C431        C  0.01802463  0.34396064  0.03489597    -0.06550
C432        C  0.03409767  0.31284556  0.05114938    -0.00630
C433        C  0.01530249  0.26664075  0.02624251    -0.09200
C434        C  0.98119577  0.25374400  0.98616970    -0.06570
C435        C  0.96626152  0.28515358  0.96934589    -0.00640
C436        C  0.98517978  0.33124818  0.99305842    -0.09110
C437        C  0.97162483  0.36693900  0.97296902     0.61270
H438        H  0.03262553  0.37887281  0.05407455     0.11970
H439        H  0.96700438  0.21931308  0.96594865     0.11980
C440        C  0.03046569  0.23037442  0.04103445     0.61510
F441        F  0.99307625  0.40951383  0.00194854    -0.23660
F442        F  0.92224838  0.34756985  0.97486149    -0.20990
F443        F  0.98625663  0.37727805  0.92221631    -0.20670
F444        F  0.02509628  0.22268046  0.09370047    -0.20720
F445        F  0.07787501  0.24698229  0.02749701    -0.21040
F446        F  0.00292577  0.18636123  0.01575261    -0.23710
C447        C  0.02424314  0.28994460  0.55722450    -0.06550
C448        C  0.98060567  0.29001135  0.55397983    -0.00630
C449        C  0.96854592  0.30566923  0.50882030    -0.09200
C450        C  0.00090795  0.32050639  0.46735694    -0.06570
C451        C  0.04442695  0.31962282  0.46993950    -0.00640
C452        C  0.05647189  0.30413157  0.51572652    -0.09110
C453        C  0.10156850  0.29994795  0.52008117     0.61270
H454        H  0.03204514  0.27699092  0.59220944     0.11970
H455        H  0.99207014  0.33231739  0.43219285     0.11980
C456        C  0.92143179  0.30595325  0.50470640     0.61510
F457        F  0.10283250  0.27845852  0.56542546    -0.23660
F458        F  0.14194991  0.34508224  0.51984066    -0.20990
F459        F  0.10318514  0.27231794  0.47899693    -0.20670
F460        F  0.91943203  0.33497340  0.54396764    -0.20720
F461        F  0.88319371  0.25983913  0.50938119    -0.21040
F462        F  0.91656623  0.32311428  0.45775283    -0.23710
C463        C  0.73503799  0.99912533  0.95122218    -0.06550
C464        C  0.73185123  0.04094307  0.95724559    -0.00630
C465        C  0.71093701  0.04762503  0.00282234    -0.09200
C466        C  0.69720736  0.01360499  0.04234147    -0.06570
C467        C  0.70232744  0.97256490  0.03707102    -0.00640
C468        C  0.71989974  0.96431958  0.98938608    -0.09110
C469        C  0.72288908  0.91919732  0.97746280     0.61270
H470        H  0.75026213  0.99397823  0.91584099     0.11970
H471        H  0.68290801  0.01932410  0.07809221     0.11980
C472        C  0.70143082  0.08923688  0.00895200     0.61510
F473        F  0.73131640  0.91488598  0.92551871    -0.23660
F474        F  0.67989620  0.87884455  0.98934759    -0.20990
F475        F  0.76031438  0.92049224  0.00556928    -0.20670
F476        F  0.67487019  0.08960909  0.96685263    -0.20720
F477        F  0.74456631  0.13201684  0.01214714    -0.21040
F478        F  0.67569594  0.08589033  0.05325410    -0.23710
C479        C  0.68975326  0.01387408  0.52767792    -0.06550
C480        C  0.73882870  0.03443171  0.54106097    -0.00630
C481        C  0.76803234  0.02000295  0.51252944    -0.09200
C482        C  0.74711855  0.98705870  0.47082220    -0.06570
C483        C  0.69875557  0.96763283  0.45715053    -0.00640
C484        C  0.66924089  0.98081346  0.48556403    -0.09110
C485        C  0.61684551  0.96085930  0.47022180     0.61270
H486        H  0.66779328  0.02459800  0.54985277     0.11970
H487        H  0.76867236  0.97646016  0.44765919     0.11980
C488        C  0.82082016  0.03793007  0.52561401     0.61510
F489        F  0.59414996  0.97822923  0.50254063    -0.23660
F490        F  0.59265795  0.91137481  0.47266584    -0.20990
F491        F  0.61383309  0.97352514  0.42011151    -0.20670
F492        F  0.82583592  0.03024463  0.57718660    -0.20720
F493        F  0.84812316  0.08626437  0.51555385    -0.21040
F494        F  0.83936088  0.01430380  0.49641049    -0.23710
C495        C  0.10166100  0.23691455  0.77304363    -0.06550
C496        C  0.05878988  0.19258568  0.76963309    -0.00630
C497        C  0.06129657  0.14985129  0.77162838    -0.09200
C498        C  0.10629179  0.15263670  0.77117872    -0.06570
C499        C  0.14909290  0.19659391  0.77027985    -0.00640
C500        C  0.14715318  0.23989954  0.77371499    -0.09110
C501        C  0.19224554  0.28901286  0.77634720     0.61270
H502        H  0.09929529  0.26935860  0.77307438     0.11970
H503        H  0.10823649  0.11992074  0.77004399     0.11980
C504        C  0.01685994  0.10108723  0.77299924     0.61510
F505        F  0.18152566  0.32578623  0.77794330    -0.23660
F506        F  0.22000685  0.29492972  0.73314405    -0.20990
F507        F  0.21848444  0.29339969  0.82075178    -0.20670
F508        F  0.99612326  0.08909778  0.72402308    -0.20720
F509        F  0.98507255  0.10204523  0.80870362    -0.21040
F510        F  0.02726031  0.06596362  0.78739055    -0.23710
C511        C  0.63081740  0.20414538  0.75085371    -0.06550
C512        C  0.62975354  0.16092786  0.73779386    -0.00630
C513        C  0.58542356  0.12050404  0.72122979    -0.09200
C514        C  0.54318104  0.12354106  0.72472359    -0.06570
C515        C  0.54372259  0.16516579  0.74355828    -0.00640
C516        C  0.58874419  0.20739988  0.75357819    -0.09110
C517        C  0.59331106  0.25577019  0.76787973     0.61270
H518        H  0.66504193  0.23535152  0.76115395     0.11970
H519        H  0.50882940  0.09221719  0.71518516     0.11980
C520        C  0.58154425  0.07364399  0.70182767     0.61510
F521        F  0.64038689  0.29283359  0.76492375    -0.23660
F522        F  0.57842222  0.25566709  0.81816633    -0.20990
F523        F  0.56589001  0.26550458  0.73412778    -0.20670
F524        F  0.59392614  0.05323698  0.74120142    -0.20720
F525        F  0.61164019  0.08212292  0.66016467    -0.21040
F526        F  0.53526713  0.04061257  0.68524878    -0.23710
C527        C  0.99601392  0.66804488  0.96447367    -0.06550
C528        C  0.97020177  0.69267673  0.95786312    -0.00630
C529        C  0.97786988  0.73004615  0.99453178    -0.09200
C530        C  0.01123046  0.74130266  0.03495131    -0.06570
C531        C  0.03824099  0.71836787  0.04012547    -0.00640
C532        C  0.02993798  0.68022148  0.00549338    -0.09110
C533        C  0.05746840  0.65355678  0.01153237     0.61270
H534        H  0.98993961  0.63962979  0.93681972     0.11970
H535        H  0.01757229  0.76955786  0.06298195     0.11980
C536        C  0.95339191  0.76031523  0.99106912     0.61510
F537        F  0.04456177  0.61778437  0.97370854    -0.23660
F538        F  0.04804459  0.63255986  0.05939657    -0.20990
F539        F  0.10633562  0.68524811  0.00804099    -0.20670
F540        F  0.90421387  0.73165625  0.99678076    -0.20720
F541        F  0.96337802  0.78284338  0.94402978    -0.21040
F542        F  0.96927286  0.79601888  0.02943317    -0.23710
C543        C  0.97496068  0.67193415  0.50473738    -0.06550
C544        C  0.97496679  0.70755647  0.53723095    -0.00630
C545        C  0.00730790  0.75654115  0.52758260    -0.09200
C546        C  0.03944788  0.76827127  0.48595538    -0.06570
C547        C  0.03964301  0.73266718  0.45363007    -0.00640
C548        C  0.00694455  0.68363206  0.46296917    -0.09110
C549        C  0.00682098  0.64382337  0.42985360     0.61270
H550        H  0.95019336  0.63473961  0.51296406     0.11970
H551        H  0.06416585  0.80547392  0.47770412     0.11980
C552        C  0.00658059  0.79620390  0.56005613     0.61510
F553        F  0.97634211  0.59892718  0.44915161    -0.23660
F554        F  0.05276177  0.65000135  0.42850212    -0.20990
F555        F  0.99162016  0.64470805  0.37999966    -0.20670
F556        F  0.02218472  0.79630506  0.60999407    -0.20720
F557        F  0.96021314  0.78893944  0.56132356    -0.21040
F558        F  0.03618197  0.84099006  0.54006887    -0.23710
C559        C  0.85404142  0.90132025  0.73871682    -0.06550
C560        C  0.80998455  0.86187570  0.75113663    -0.00630
C561        C  0.76964399  0.86782018  0.76029503    -0.09200
C562        C  0.77536306  0.91405858  0.75656486    -0.06570
C563        C  0.81999078  0.95419494  0.74473865    -0.00640
C564        C  0.86006661  0.94738857  0.73570037    -0.09110
C565        C  0.91002049  0.98862979  0.72701310     0.61270
H566        H  0.88429690  0.89568343  0.73213726     0.11970
H567        H  0.74483461  0.91913772  0.76336755     0.11980
C568        C  0.72147645  0.82618431  0.77590516     0.61510
F569        F  0.94451774  0.97466088  0.72574172    -0.23660
F570        F  0.92130723  0.02107361  0.76778649    -0.20990
F571        F  0.91166800  0.00960848  0.68037204    -0.20670
F572        F  0.72753656  0.80506012  0.81916104    -0.20720
F573        F  0.70236881  0.79254275  0.73561687    -0.21040
F574        F  0.68854195  0.84085985  0.78786313    -0.23710
C575        C  0.89891593  0.42885774  0.75541888    -0.06550
C576        C  0.85427194  0.38641318  0.75159471    -0.00630
C577        C  0.81221688  0.38893731  0.74087199    -0.09200
C578        C  0.81658404  0.43436747  0.73492398    -0.06570
C579        C  0.86110576  0.47707927  0.74008554    -0.00640
C580        C  0.90333089  0.47432195  0.75008751    -0.09110
C581        C  0.95316090  0.51853938  0.75399400     0.61270
H582        H  0.93059716  0.42610405  0.76356155     0.11970
H583        H  0.78483304  0.43684955  0.72669081     0.11980
C584        C  0.76309369  0.34413846  0.73463552     0.61510
F585        F  0.98911261  0.50668196  0.75771416    -0.23660
F586        F  0.95641533  0.54578347  0.79772661    -0.20990
F587        F  0.96182647  0.54558096  0.71029986    -0.20670
F588        F  0.74822061  0.32261658  0.78192997    -0.20720
F589        F  0.76539847  0.31220840  0.69940750    -0.21040
F590        F  0.72868486  0.35459315  0.71671554    -0.23710
C591        C  0.09259471  0.87029991  0.75349678    -0.06550
C592        C  0.05066926  0.87331356  0.76120169    -0.00630
C593        C  0.05479400  0.91921880  0.76803686    -0.09200
C594        C  0.10095443  0.96016087  0.76771602    -0.06570
C595        C  0.14273464  0.95693458  0.76078548    -0.00640
C596        C  0.13863248  0.91124252  0.75280184    -0.09110
C597        C  0.18205950  0.90538622  0.74152317     0.61270
H598        H  0.08914487  0.83521049  0.74821627     0.11970
H599        H  0.10489141  0.99548162  0.77301328     0.11980
C600        C  0.01116798  0.92569104  0.77436793     0.61510
F601        F  0.16893191  0.85823563  0.72907809    -0.23660
F602        F  0.21211873  0.91950608  0.78463157    -0.20990
F603        F  0.20686569  0.93295280  0.69997812    -0.20670
F604        F  0.98971661  0.90809496  0.82134935    -0.20720
F605        F  0.97845184  0.90174512  0.73435734    -0.21040
F606        F  0.02355677  0.97351856  0.77348910    -0.23710
C607        C  0.59085841  0.46524892  0.72339480    -0.06550
C608        C  0.63297153  0.46768691  0.74200997    -0.00630
C609        C  0.63091863  0.42813113  0.76678315    -0.09200
C610        C  0.58594015  0.38614206  0.77076333    -0.06570
C611        C  0.54315786  0.38325394  0.75202581    -0.00640
C612        C  0.54564999  0.42400595  0.72811687    -0.09110
C613        C  0.50160234  0.42552645  0.70839266     0.61270
H614        H  0.59389960  0.49662896  0.70520171     0.11970
H615        H  0.58395941  0.35543796  0.78940325     0.11980
C616        C  0.67567501  0.43125835  0.79077765     0.61510
F617        F  0.51346998  0.46958587  0.68836635    -0.23660
F618        F  0.47018885  0.41753062  0.74864716    -0.20990
F619        F  0.47891688  0.39128558  0.66916387    -0.20670
F620        F  0.69570038  0.46884042  0.82694579    -0.20720
F621        F  0.70886131  0.43909202  0.75269321    -0.21040
F622        F  0.66559453  0.38959400  0.81549392    -0.23710
C623        C  0.74294787  0.69334626  0.99927739    -0.06550
C624        C  0.71398789  0.67573796  0.95423992    -0.00630
C625        C  0.66771541  0.67201206  0.95425089    -0.09200
C626        C  0.65498794  0.69127264  0.99730297    -0.06570
C627        C  0.68663149  0.71322618  0.03951321    -0.00640
C628        C  0.73053852  0.71285177  0.04153696    -0.09110
C629        C  0.76488504  0.73413306  0.08776655     0.61270
H630        H  0.77717304  0.69423968  0.00019887     0.11970
H631        H  0.62106962  0.69106323  0.99749522     0.11980
C632        C  0.63223829  0.64912485  0.90932923     0.61510
F633        F  0.80404317  0.72708705  0.08340950    -0.23660
F634        F  0.74085246  0.71262844  0.13235559    -0.20990
F635        F  0.78221511  0.78300018  0.09215884    -0.20670
F636        F  0.62520205  0.60372200  0.89819483    -0.20720
F637        F  0.64956280  0.67713685  0.86620092    -0.21040
F638        F  0.58781968  0.64434832  0.92071666    -0.23710
C639        C  0.74579314  0.73596681  0.45165762    -0.06550
C640        C  0.70045217  0.73300414  0.45364307    -0.00630
C641        C  0.67090976  0.71208176  0.49705284    -0.09200
C642        C  0.68860473  0.69620757  0.53761307    -0.06570
C643        C  0.73398167  0.69922779  0.53563594    -0.00640
C644        C  0.76322991  0.71953313  0.49189494    -0.08870
C645        C  0.81310564  0.72513058  0.48813852     0.61270
H646        H  0.76767356  0.75138335  0.41790635     0.11970
H647        H  0.66665531  0.68064014  0.57127451     0.11980
C648        C  0.62023488  0.70458376  0.49973978     0.61510
F649        F  0.83733418  0.75037294  0.44505556    -0.23660
F650        F  0.80938613  0.68041477  0.48440758    -0.20990
F651        F  0.84032478  0.74979313  0.53160129    -0.20670
F652        F  0.59411630  0.67930998  0.45594559    -0.20720
F653        F  0.62211349  0.74848061  0.50299137    -0.21040
F654        F  0.59591660  0.67881836  0.54252861    -0.23710
loop_ 
_geom_bond_atom_site_label_1 
_geom_bond_atom_site_label_2 
_geom_bond_distance 
_geom_bond_site_symmetry_2 
_ccdc_geom_bond_type 
N1            N2   1.317       .  A
N1            N7   1.314       .  A
N1          Mn30   2.198       .  S
N2            C9   1.353       .  A
N3            N5   1.314       .  A
N3            N4   1.324       .  A
N3          Mn19   2.202       .  S
N4           C10   1.356       .  A
N5            N6   1.314       .  A
N5          Mn30   2.188       .  S
N6           C10   1.351       .  A
N7            N8   1.320       .  A
N7          Mn19   2.184       .  S
N8            C9   1.350       .  A
C9          C560   1.472       .  S
C10         C624   1.493       .  S
N11          N17   1.316       .  A
N11          N12   1.322       .  A
N11         Mn41   2.215       .  S
N12          C20   1.354       .  A
N13          N14   1.319       .  A
N13          N15   1.316       .  A
N13         Mn19   2.193       .  S
N14          C21   1.350       .  A
N15          N16   1.325       .  A
N15         Mn41   2.233       .  S
N16          C21   1.359       .  A
N17          N18   1.316       .  A
N17         Mn19   2.182       .  S
N18          C20   1.349       .  A
Mn19        Cl43   2.559       .  S
C20         C608   1.468       .  S
C21         C643   1.491       .  S
N22          N23   1.312       .  A
N22          N28   1.315       .  A
N22         Mn30   2.190       .  S
N23          C31   1.345       .  A
N24          N26   1.314       .  A
N24          N25   1.318       .  A
N24         Mn42   2.189       .  S
N25          C32   1.354   1_655  A
N26          N27   1.320       .  A
N26         Mn30   2.204       .  S
N27          C32   1.354   1_655  A
N28          N29   1.329       .  A
N28         Mn42   2.221       .  S
N29          C31   1.361       .  A
Mn30        Cl43   2.520       .  S
C31         C528   1.498       .  S
C32         C592   1.489       .  S
N33          N34   1.326       .  A
N33          N39   1.318       .  A
N33         Mn41   2.227       .  S
N34          C44   1.358       .  A
N35          N36   1.319       .  A
N35          N37   1.316       .  A
N35         Mn42   2.202       .  S
N36          C45   1.353       .  A
N37          N38   1.321       .  A
N37         Mn41   2.211       .  S
N38          C45   1.355       .  A
N39          N40   1.319       .  A
N39         Mn42   2.203       .  S
N40          C44   1.349       .  A
Mn41        Cl43   2.544       .  S
Mn42        Cl43   2.557       .  S
C44         C544   1.484       .  S
C45         C579   1.490       .  S
N46          N47   1.317       .  A
N46          N52   1.315       .  A
N46         Mn75   2.189       .  S
N47          C54   1.348       .  A
N48          N50   1.315       .  A
N48          N49   1.323   1_655  A
N48         Mn64   2.203       .  S
N49          C55   1.356       .  A
N50          N51   1.317       .  A
N50         Mn75   2.202       .  S
N51          C55   1.352   1_655  A
N52          N53   1.323       .  A
N52         Mn64   2.204       .  S
N53          C54   1.354       .  A
C54         C448   1.470       .  S
C55         C496   1.489       .  S
N56          N62   1.317       .  A
N56          N57   1.324       .  A
N56         Mn86   2.222       .  S
N57          C65   1.356       .  A
N58          N59   1.319       .  A
N58          N60   1.317       .  A
N58         Mn64   2.199       .  S
N59          C66   1.353       .  A
N60          N61   1.321       .  A
N60         Mn86   2.211       .  S
N61          C66   1.353       .  A
N62          N63   1.316       .  A
N62         Mn64   2.182       .  S
N63          C65   1.345       .  A
Mn64        Cl88   2.556       .  S
C65         C435   1.467       .  S
C66         C576   1.482       .  S
N67          N68   1.318       .  A
N67          N73   1.314       .  A
N67         Mn75   2.209       .  S
N68          C76   1.354       .  A
N69          N71   1.315       .  A
N69          N70   1.326       .  A
N69         Mn87   2.212       .  S
N70          C77   1.358       .  A
N71          N72   1.313       .  A
N71         Mn75   2.183       .  S
N72          C77   1.344       .  A
N73          N74   1.321       .  A
N73         Mn87   2.190       .  S
N74          C76   1.354       .  A
Mn75        Cl88   2.520       .  S
C76         C563   1.496   1_545  S
C77         C480   1.489       .  S
N78          N79   1.318       .  A
N78          N84   1.315       .  A
N78         Mn86   2.201       .  S
N79          C89   1.354       .  A
N80          N81   1.316       .  A
N80          N82   1.317       .  A
N80         Mn87   2.194       .  S
N81          C90   1.349       .  A
N82          N83   1.328       .  A
N82         Mn86   2.236       .  S
N83          C90   1.361       .  A
N84          N85   1.319       .  A
N84         Mn87   2.194       .  S
N85          C89   1.352       .  A
Mn86        Cl88   2.550       .  S
Mn87        Cl88   2.557       .  S
C89         C512   1.488       .  S
C90         C464   1.493       .  S
N91          N92   1.327       .  A
N91          N97   1.318       .  A
N91        Mn120   2.238       .  S
N92          C99   1.360       .  A
N93          N95   1.316       .  A
N93          N94   1.321       .  A
N93        Mn109   2.195       .  S
N94         C100   1.352       .  A
N95          N96   1.317       .  A
N95        Mn120   2.197       .  S
N96         C100   1.349       .  A
N97          N98   1.318       .  A
N97        Mn109   2.195       .  S
N98          C99   1.347       .  A
C99         C547   1.484       .  S
C100        C387   1.465       .  S
N101        N107   1.316       .  A
N101        N102   1.316       .  A
N101       Mn131   2.202       .  S
N102        C110   1.352       .  A
N103        N104   1.320       .  A
N103        N105   1.313       .  A
N103       Mn109   2.192       .  S
N104        C111   1.354       .  A
N105        N106   1.319       .  A
N105       Mn131   2.198       .  S
N106        C111   1.352       .  A
N107        N108   1.326       .  A
N107       Mn109   2.213       .  S
N108        C110   1.356       .  A
Mn109      Cl133   2.557       .  S
C110        C531   1.482       .  S
C111        C416   1.481   1_455  S
N112        N113   1.321       .  A
N112        N118   1.318       .  A
N112       Mn120   2.214       .  S
N113        C121   1.352       .  A
N114        N116   1.316       .  A
N114        N115   1.313       .  A
N114       Mn132   2.199       .  S
N115        C122   1.348       .  A
N116        N117   1.329       .  A
N116       Mn120   2.218       .  S
N117        C122   1.360       .  A
N118        N119   1.320       .  A
N118       Mn132   2.204       .  S
N119        C121   1.352       .  A
Mn120      Cl133   2.551       .  S
C121        C400   1.475       .  S
C122        C355   1.498       .  S
N123        N124   1.319       .  A
N123        N129   1.314       .  A
N123       Mn131   2.193       .  S
N124        C134   1.354   1_565  A
N125        N126   1.323       .  A
N125        N127   1.317       .  A
N125       Mn132   2.210       .  S
N126        C135   1.353       .  A
N127        N128   1.319       .  A
N127       Mn131   2.193       .  S
N128        C135   1.349       .  A
N129        N130   1.320       .  A
N129       Mn132   2.213       .  S
N130        C134   1.356   1_565  A
Mn131      Cl133   2.529       .  S
Mn132      Cl133   2.546       .  S
C134        C371   1.499       .  S
C135        C336   1.477       .  S
N136        N137   1.321       .  A
N136        N142   1.315       .  A
N136       Mn165   2.211       .  S
N137        C144   1.357       .  A
N138        N140   1.316       .  A
N138        N139   1.314       .  A
N138       Mn154   2.191       .  S
N139        C145   1.347       .  A
N140        N141   1.325       .  A
N140       Mn165   2.206       .  S
N141        C145   1.357       .  A
N142        N143   1.315       .  A
N142       Mn154   2.182       .  S
N143        C144   1.349       .  A
C144        C611   1.490       .  S
C145        C320   1.474       .  S
N146        N152   1.314       .  A
N146        N147   1.320       .  A
N146       Mn176   2.215       .  S
N147        C155   1.358       .  A
N148        N149   1.327       .  A
N148        N150   1.318       .  A
N148       Mn154   2.223       .  S
N149        C156   1.356       .  A
N150        N151   1.319       .  A
N150       Mn176   2.199       .  S
N151        C156   1.349       .  A
N152        N153   1.317       .  A
N152       Mn154   2.172       .  S
N153        C155   1.348       .  A
Mn154      Cl178   2.541       .  S
C155        C499   1.483       .  S
C156        C304   1.488       .  S
N157        N158   1.327       .  A
N157        N163   1.317       .  A
N157       Mn165   2.235       .  S
N158        C166   1.360       .  A
N159        N161   1.314       .  A
N159        N160   1.322       .  A
N159       Mn177   2.207       .  S
N160        C167   1.358       .  A
N161        N162   1.315       .  A
N161       Mn165   2.183       .  S
N162        C167   1.348       .  A
N163        N164   1.316       .  A
N163       Mn177   2.180       .  S
N164        C166   1.345       .  A
Mn165      Cl178   2.558       .  S
C166        C339   1.480       .  S
C167        C515   1.486       .  S
N168        N169   1.316       .  A
N168        N174   1.316       .  A
N168       Mn176   2.211       .  S
N169        C179   1.355       .  A
N170        N171   1.321       .  A
N170        N172   1.315       .  A
N170       Mn177   2.208       .  S
N171        C180   1.354       .  A
N172        N173   1.318       .  A
N172       Mn176   2.191       .  S
N173        C180   1.351       .  A
N174        N175   1.323       .  A
N174       Mn177   2.183       .  S
N175        C179   1.350       .  A
Mn176      Cl178   2.532       .  S
Mn177      Cl178   2.549       .  S
C179        C352   1.487       .  S
C180        C595   1.482   1_545  S
N181        N182   1.318       .  A
N181        N187   1.312       .  A
N181       Mn210   2.194       .  S
N182        C189   1.352       .  A
N183        N185   1.313       .  A
N183        N184   1.326       .  A
N183       Mn199   2.214       .  S
N184        C190   1.359       .  A
N185        N186   1.312       .  A
N185       Mn210   2.168       .  S
N186        C190   1.342       .  A
N187        N188   1.321       .  A
N187       Mn199   2.193       .  S
N188        C189   1.355       .  A
C189        C272   1.483   1_455  S
C190        C432   1.484       .  S
N191        N197   1.317       .  A
N191        N192   1.319       .  A
N191       Mn221   2.210       .  S
N192        C200   1.352       .  A
N193        N194   1.319       .  A
N193        N195   1.317       .  A
N193       Mn199   2.197       .  S
N194        C201   1.351       .  A
N195        N196   1.322       .  A
N195       Mn221   2.213       .  S
N196        C201   1.355       .  A
N197        N198   1.319       .  A
N197       Mn199   2.189       .  S
N198        C200   1.350       .  A
Mn199      Cl223   2.568       .  S
C200        C384   1.463       .  S
C201        C451   1.484       .  S
N202        N203   1.310       .  A
N202        N208   1.313       .  A
N202       Mn210   2.172       .  S
N203        C211   1.343       .  A
N204        N206   1.313       .  A
N204        N205   1.320       .  A
N204       Mn222   2.209       .  S
N205        C212   1.361       .  A
N206        N207   1.313       .  A
N206       Mn210   2.160       .  S
N207        C212   1.343       .  A
N208        N209   1.326       .  A
N208       Mn222   2.210       .  S
N209        C211   1.360       .  A
Mn210      Cl223   2.494       .  S
C211        C323   1.493       .  S
C212        C368   1.485       .  S
N213        N214   1.326       .  A
N213        N219   1.318       .  A
N213       Mn221   2.228       .  S
N214        C224   1.357       .  A
N215        N216   1.322       .  A
N215        N217   1.316       .  A
N215       Mn222   2.206       .  S
N216        C225   1.354       .  A
N217        N218   1.318       .  A
N217       Mn221   2.202       .  S
N218        C225   1.352       .  A
N219        N220   1.321       .  A
N219       Mn222   2.211       .  S
N220        C224   1.351       .  A
Mn221      Cl223   2.530       .  S
Mn222      Cl223   2.569       .  S
C224        C307   1.485       .  S
C225        C288   1.479       .  S
N226        N227   1.320       .  A
N226        N232   1.313       .  A
N226       Mn255   2.196       .  S
N227        C234   1.354       .  A
N228        N230   1.317       .  A
N228        N229   1.321       .  A
N228       Mn244   2.200       .  S
N229        C235   1.352       .  A
N230        N231   1.319       .  A
N230       Mn255   2.211       .  S
N231        C235   1.352       .  A
N232        N233   1.321       .  A
N232       Mn244   2.202       .  S
N233        C234   1.353       .  A
C234        C419   1.487       .  S
C235        C627   1.473       .  S
N236        N242   1.314       .  A
N236        N237   1.315       .  A
N236       Mn266   2.185       .  S
N237        C245   1.347       .  A
N238        N239   1.318       .  A
N238        N240   1.316       .  A
N238       Mn244   2.189       .  S
N239        C246   1.349       .  A
N240        N241   1.326       .  A
N240       Mn266   2.235       .  S
N241        C246   1.361       .  A
N242        N243   1.325       .  A
N242       Mn244   2.212       .  S
N243        C245   1.358       .  A
Mn244      Cl268   2.558       .  S
C245        C291   1.481       .  S
C246        C640   1.491       .  S
N247        N248   1.315       .  A
N247        N253   1.315       .  A
N247       Mn255   2.191       .  S
N248        C256   1.347       .  A
N249        N251   1.315       .  A
N249        N250   1.318       .  A
N249       Mn267   2.199       .  S
N250        C257   1.353   1_565  A
N251        N252   1.321       .  A
N251       Mn255   2.208       .  S
N252        C257   1.354   1_565  A
N253        N254   1.328       .  A
N253       Mn267   2.221       .  S
N254        C256   1.361       .  A
Mn255      Cl268   2.529       .  S
C256        C467   1.501       .  S
C257        C275   1.485       .  S
N258        N259   1.323       .  A
N258        N264   1.316       .  A
N258       Mn266   2.203       .  S
N259        C269   1.354       .  A
N260        N261   1.323       .  A
N260        N262   1.318       .  A
N260       Mn267   2.215       .  S
N261        C270   1.356       .  A
N262        N263   1.318       .  A
N262       Mn266   2.204       .  S
N263        C270   1.349       .  A
N264        N265   1.317       .  A
N264       Mn267   2.195       .  S
N265        C269   1.348       .  A
Mn266      Cl268   2.536       .  S
Mn267      Cl268   2.557       .  S
C269        C483   1.469       .  S
C270        C403   1.474       .  S
C271        C272   1.405       .  A
C271        C276   1.408       .  A
C271        H278   1.082       .  S
C272        C273   1.418       .  A
C273        C274   1.406       .  A
C273        C280   1.520       .  S
C274        C275   1.405       .  A
C274        H279   1.082       .  S
C275        C276   1.418       .  A
C276        C277   1.519       .  S
C277        F281   1.385       .  S
C277        F282   1.382   1_545  S
C277        F283   1.383   1_545  S
C280        F284   1.384       .  S
C280        F285   1.383       .  S
C280        F286   1.385       .  S
C287        C288   1.399       .  A
C287        C292   1.401       .  A
C287        H294   1.083       .  S
C288        C289   1.417       .  A
C289        C290   1.412       .  A
C289        C296   1.518       .  S
C290        C291   1.405       .  A
C290        H295   1.083       .  S
C291        C292   1.422       .  A
C292        C293   1.523       .  S
C293        F297   1.384       .  S
C293        F298   1.383       .  S
C293        F299   1.384       .  S
C296        F300   1.384       .  S
C296        F301   1.382       .  S
C296        F302   1.384       .  S
C303        C304   1.403       .  A
C303        C308   1.414       .  A
C303        H310   1.083       .  S
C304        C305   1.423       .  A
C305        C306   1.410       .  A
C305        C312   1.520       .  S
C306        C307   1.399       .  A
C306        H311   1.083       .  S
C307        C308   1.419       .  A
C308        C309   1.517       .  S
C309        F313   1.385       .  S
C309        F314   1.383       .  S
C309        F315   1.382       .  S
C312        F316   1.384       .  S
C312        F317   1.382       .  S
C312        F318   1.385       .  S
C319        C320   1.395       .  A
C319        C324   1.400   1_556  A
C319        H326   1.083       .  S
C320        C321   1.413   1_556  A
C321        C322   1.412       .  A
C321        C328   1.517       .  S
C322        C323   1.411       .  A
C322        H327   1.082       .  S
C323        C324   1.432       .  A
C324        C325   1.527   1_554  S
C325        F329   1.385       .  S
C325        F330   1.384   1_556  S
C325        F331   1.384   1_556  S
C328        F332   1.384   1_554  S
C328        F333   1.382       .  S
C328        F334   1.385       .  S
C335        C336   1.398       .  A
C335        C340   1.409   1_564  A
C335        H342   1.083       .  S
C336        C337   1.419   1_565  A
C337        C338   1.408       .  A
C337        C344   1.520       .  S
C338        C339   1.399   1_554  A
C338        H343   1.083       .  S
C339        C340   1.422       .  A
C340        C341   1.519       .  S
C341        F345   1.385   1_545  S
C341        F346   1.383       .  S
C341        F347   1.382   1_545  S
C344        F348   1.383       .  S
C344        F349   1.382   1_545  S
C344        F350   1.384       .  S
C351        C352   1.391       .  A
C351        C356   1.393       .  A
C351        H358   1.083       .  S
C352        C353   1.424   1_545  A
C353        C354   1.420       .  A
C353        C360   1.516       .  S
C354        C355   1.407       .  A
C354        H359   1.082       .  S
C355        C356   1.421   1_565  A
C356        C357   1.505       .  S
C357        F361   1.386       .  S
C357        F362   1.384       .  S
C357        F363   1.383       .  S
C360        F364   1.383       .  S
C360        F365   1.383       .  S
C360        F366   1.385       .  S
C367        C368   1.396       .  A
C367        C372   1.397       .  A
C367        H374   1.082       .  S
C368        C369   1.427       .  A
C369        C370   1.408       .  A
C369        C376   1.523       .  S
C370        C371   1.405       .  A
C370        H375   1.081       .  S
C371        C372   1.421       .  A
C372        C373   1.501       .  S
C373        F377   1.386       .  S
C373        F378   1.382       .  S
C373        F379   1.371       .  S
C376        F380   1.383       .  S
C376        F381   1.383       .  S
C376        F382   1.385       .  S
C383        C384   1.397       .  A
C383        C388   1.400       .  A
C383        H390   1.083       .  S
C384        C385   1.413       .  A
C385        C386   1.408       .  A
C385        C392   1.516       .  S
C386        C387   1.402       .  A
C386        H391   1.083       .  S
C387        C388   1.415       .  A
C388        C389   1.520       .  S
C389        F393   1.384       .  S
C389        F394   1.383       .  S
C389        F395   1.382       .  S
C392        F396   1.383       .  S
C392        F397   1.384       .  S
C392        F398   1.385       .  S
C399        C400   1.403       .  A
C399        C404   1.410       .  A
C399        H406   1.083       .  S
C400        C401   1.416       .  A
C401        C402   1.405       .  A
C401        C408   1.519       .  S
C402        C403   1.400       .  A
C402        H407   1.083       .  S
C403        C404   1.416       .  A
C404        C405   1.518       .  S
C405        F409   1.385       .  S
C405        F410   1.383       .  S
C405        F411   1.383       .  S
C408        F412   1.384       .  S
C408        F413   1.382       .  S
C408        F414   1.385       .  S
C415        C416   1.402       .  A
C415        C420   1.405       .  A
C415        H422   1.082       .  S
C416        C417   1.417       .  A
C417        C418   1.408       .  A
C417        C424   1.520   1_655  S
C418        C419   1.406       .  A
C418        H423   1.083       .  S
C419        C420   1.422       .  A
C420        C421   1.518       .  S
C421        F425   1.385       .  S
C421        F426   1.379       .  S
C421        F427   1.382       .  S
C424        F428   1.382       .  S
C424        F429   1.384       .  S
C424        F430   1.384   1_455  S
C431        C432   1.405       .  A
C431        C436   1.411   1_454  A
C431        H438   1.083       .  S
C432        C433   1.430       .  A
C433        C434   1.401   1_454  A
C433        C440   1.525       .  S
C434        C435   1.392       .  A
C434        H439   1.084       .  S
C435        C436   1.413       .  A
C436        C437   1.516       .  S
C437        F441   1.385   1_556  S
C437        F442   1.383       .  S
C437        F443   1.383       .  S
C440        F444   1.384       .  S
C440        F445   1.384       .  S
C440        F446   1.385       .  S
C447        C448   1.401   1_455  A
C447        C452   1.406       .  A
C447        H454   1.083       .  S
C448        C449   1.409       .  A
C449        C450   1.408   1_655  A
C449        C456   1.517       .  S
C450        C451   1.409       .  A
C450        H455   1.083   1_455  S
C451        C452   1.419       .  A
C452        C453   1.520       .  S
C453        F457   1.385       .  S
C453        F458   1.382       .  S
C453        F459   1.384       .  S
C456        F460   1.383       .  S
C456        F461   1.383       .  S
C456        F462   1.385       .  S
C463        C464   1.402   1_565  A
C463        C468   1.405       .  A
C463        H470   1.083       .  S
C464        C465   1.418   1_556  A
C465        C466   1.417       .  A
C465        C472   1.517       .  S
C466        C467   1.411   1_545  A
C466        H471   1.082       .  S
C467        C468   1.426   1_554  A
C468        C469   1.524       .  S
C469        F473   1.385       .  S
C469        F474   1.384       .  S
C469        F475   1.383   1_556  S
C472        F476   1.384   1_554  S
C472        F477   1.382       .  S
C472        F478   1.385       .  S
C479        C480   1.407       .  A
C479        C484   1.411   1_545  A
C479        H486   1.083       .  S
C480        C481   1.431       .  A
C481        C482   1.402   1_545  A
C481        C488   1.524       .  S
C482        C483   1.393       .  A
C482        H487   1.083       .  S
C483        C484   1.412       .  A
C484        C485   1.516       .  S
C485        F489   1.384       .  S
C485        F490   1.383       .  S
C485        F491   1.384       .  S
C488        F492   1.384       .  S
C488        F493   1.383       .  S
C488        F494   1.385       .  S
C495        C496   1.403       .  A
C495        C500   1.411       .  A
C495        H502   1.082       .  S
C496        C497   1.417       .  A
C497        C498   1.398       .  A
C497        C504   1.505       .  S
C498        C499   1.396       .  A
C498        H503   1.083       .  S
C499        C500   1.424       .  A
C500        C501   1.519       .  S
C501        F505   1.385       .  S
C501        F506   1.383       .  S
C501        F507   1.383       .  S
C504        F508   1.382   1_455  S
C504        F509   1.384   1_455  S
C504        F510   1.385       .  S
C511        C512   1.405       .  A
C511        C516   1.404       .  A
C511        H518   1.082       .  S
C512        C513   1.422       .  A
C513        C514   1.406       .  A
C513        C520   1.520       .  S
C514        C515   1.404       .  A
C514        H519   1.082       .  S
C515        C516   1.422       .  A
C516        C517   1.523       .  S
C517        F521   1.384       .  S
C517        F522   1.383       .  S
C517        F523   1.384       .  S
C520        F524   1.383       .  S
C520        F525   1.383       .  S
C520        F526   1.385       .  S
C527        C528   1.413       .  A
C527        C532   1.418   1_656  A
C527        H534   1.083       .  S
C528        C529   1.431       .  A
C529        C530   1.399   1_656  A
C529        C536   1.527       .  S
C530        C531   1.396       .  A
C530        H535   1.083       .  S
C531        C532   1.412       .  A
C532        C533   1.515       .  S
C533        F537   1.385   1_554  S
C533        F538   1.383       .  S
C533        F539   1.383       .  S
C536        F540   1.383       .  S
C536        F541   1.384       .  S
C536        F542   1.385   1_556  S
C543        C544   1.402       .  A
C543        C548   1.411   1_655  A
C543        H550   1.083       .  S
C544        C545   1.418   1_655  A
C545        C546   1.411       .  A
C545        C552   1.518       .  S
C546        C547   1.402       .  A
C546        H551   1.083       .  S
C547        C548   1.420       .  A
C548        C549   1.519       .  S
C549        F553   1.385   1_455  S
C549        F554   1.384       .  S
C549        F555   1.382   1_455  S
C552        F556   1.382       .  S
C552        F557   1.384   1_455  S
C552        F558   1.384       .  S
C559        C560   1.393       .  A
C559        C564   1.399       .  A
C559        H566   1.083       .  S
C560        C561   1.416       .  A
C561        C562   1.410       .  A
C561        C568   1.518       .  S
C562        C563   1.409       .  A
C562        H567   1.082       .  S
C563        C564   1.423       .  A
C564        C565   1.507       .  S
C565        F569   1.384       .  S
C565        F570   1.377   1_565  S
C565        F571   1.383   1_565  S
C568        F572   1.384       .  S
C568        F573   1.382       .  S
C568        F574   1.385       .  S
C575        C576   1.403       .  A
C575        C580   1.406       .  A
C575        H582   1.082       .  S
C576        C577   1.416       .  A
C577        C578   1.408       .  A
C577        C584   1.519       .  S
C578        C579   1.406       .  A
C578        H583   1.080       .  S
C579        C580   1.422       .  A
C580        C581   1.521       .  S
C581        F585   1.385       .  S
C581        F586   1.383       .  S
C581        F587   1.384       .  S
C584        F588   1.382       .  S
C584        F589   1.384       .  S
C584        F590   1.384       .  S
C591        C592   1.407       .  A
C591        C596   1.406       .  A
C591        H598   1.082       .  S
C592        C593   1.421       .  A
C593        C594   1.408       .  A
C593        C600   1.519       .  S
C594        C595   1.403       .  A
C594        H599   1.083       .  S
C595        C596   1.417       .  A
C596        C597   1.520       .  S
C597        F601   1.385       .  S
C597        F602   1.382       .  S
C597        F603   1.383       .  S
C600        F604   1.382   1_455  S
C600        F605   1.384   1_455  S
C600        F606   1.384       .  S
C607        C608   1.396       .  A
C607        C612   1.402       .  A
C607        H614   1.083       .  S
C608        C609   1.410       .  A
C609        C610   1.407       .  A
C609        C616   1.517       .  S
C610        C611   1.411       .  A
C610        H615   1.082       .  S
C611        C612   1.428       .  A
C612        C613   1.523       .  S
C613        F617   1.385       .  S
C613        F618   1.384       .  S
C613        F619   1.383       .  S
C616        F620   1.384       .  S
C616        F621   1.381       .  S
C616        F622   1.385       .  S
C623        C624   1.406       .  A
C623        C628   1.398   1_556  A
C623        H630   1.082   1_556  S
C624        C625   1.426       .  A
C625        C626   1.415       .  A
C625        C632   1.517       .  S
C626        C627   1.401   1_556  A
C626        H631   1.083       .  S
C627        C628   1.413       .  A
C628        C629   1.521       .  S
C629        F633   1.385       .  S
C629        F634   1.381       .  S
C629        F635   1.382       .  S
C632        F636   1.384       .  S
C632        F637   1.383       .  S
C632        F638   1.385       .  S
C639        C640   1.408       .  A
C639        C644   1.411       .  A
C639        H646   1.083       .  S
C640        C641   1.417       .  A
C641        C642   1.411       .  A
C641        C648   1.519       .  S
C642        C643   1.408       .  A
C642        H647   1.082       .  S
C643        C644   1.417       .  A
C644        C645   1.519       .  S
C645        F649   1.384       .  S
C645        F650   1.382       .  S
C645        F651   1.384       .  S
C648        F652   1.384       .  S
C648        F653   1.382       .  S
C648        F654   1.385       .  S
