geometry optimzed in LAMMPS
_audit_creation_date              2020-11-30 
_audit_creation_method            'lammps2cif' 
_symmetry_space_group_name_H-M    'P1' 
_symmetry_Int_Tables_number       1 
_symmetry_cell_setting            triclinic 
loop_ 
_symmetry_equiv_pos_as_xyz 
  x,y,z 
_cell_length_a                    40.51053085 
_cell_length_b                    40.817239156043854 
_cell_length_c                    41.12938646928434 
_cell_angle_alpha                 87.82666249237079 
_cell_angle_beta                  89.25760424812962 
_cell_angle_gamma                 89.50936086528786 
loop_ 
_atom_site_label 
_atom_site_type_symbol 
_atom_site_fract_x 
_atom_site_fract_y 
_atom_site_fract_z 
_atom_site_charge 
O1          O  0.49313344  0.53172414  0.08065235    -0.79800
O2          O  0.43567130  0.51410546  0.95830946    -0.79800
O3          O  0.54020894  0.54874409  0.97480221    -0.79800
O4          O  0.42835354  0.46861846  0.03420926    -0.79800
O5          O  0.48833230  0.55456981  0.96304110    -0.79900
O6          O  0.44367336  0.52008182  0.03821348    -0.79800
O7          O  0.42697265  0.46177994  0.96798379    -0.79800
O8          O  0.51266134  0.55282005  0.03424252    -0.79800
C9          C  0.50309448  0.55664560  0.06411579     1.09900
C10         C  0.41777151  0.48926446  0.95575846     1.09800
C11         C  0.51676427  0.56665329  0.96455656     1.09900
C12         C  0.42211617  0.49799401  0.04249557     1.09800
O13         O  0.47865918  0.46628597  0.07031693    -0.79800
O14         O  0.53116877  0.50311657  0.93651755    -0.79900
O15         O  0.57272411  0.52407102  0.02740008    -0.79800
O16         O  0.48934211  0.42869511  0.96911148    -0.79800
O17         O  0.47732947  0.46426188  0.92952302    -0.79800
O18         O  0.53921347  0.49145600  0.05490739    -0.79800
O19         O  0.49214052  0.43200090  0.03331969    -0.79800
O20         O  0.55528856  0.48072765  0.97987384    -0.79800
Co21       Co  0.49060315  0.50664337  0.04269205     1.51500
Co22       Co  0.48325121  0.50872149  0.94992844     1.51700
Co23       Co  0.53221778  0.51286176  0.00796727     1.51600
Co24       Co  0.46143534  0.45022055  0.00132995     1.51500
O25         O  0.48929627  0.49174794  0.99643394    -1.41700
C26         C  0.48730348  0.43767090  0.06258325     1.09800
C27         C  0.55470482  0.48611276  0.94912797     1.09900
C28         C  0.56771257  0.50569503  0.05232938     1.09900
C29         C  0.48547011  0.43524670  0.93923731     1.09800
N30         N  0.19835035  0.50894319  0.20380131    -0.03100
C31         C  0.22864900  0.52124042  0.19429640    -0.00500
C32         C  0.24201199  0.53880581  0.21889380    -0.23400
C33         C  0.21950828  0.53874968  0.24375564    -0.23600
C34         C  0.19332888  0.51982457  0.23470726    -0.00600
H35         H  0.26585526  0.55058435  0.21870570     0.13200
H36         H  0.22249832  0.55026645  0.26680295     0.13200
N37         N  0.75329106  0.46775267  0.24906188    -0.03100
C38         C  0.75774003  0.46679927  0.28209320    -0.00500
C39         C  0.72747570  0.46602802  0.29798764    -0.23400
C40         C  0.70370192  0.46611601  0.27453550    -0.23600
C41         C  0.71979475  0.46802653  0.24466694    -0.00600
H42         H  0.72311524  0.46599766  0.32400510     0.13200
H43         H  0.67728798  0.46624394  0.27883631     0.13200
N44         N  0.20678525  0.49718472  0.78456459    -0.03100
C45         C  0.23692529  0.50902386  0.79310077    -0.00500
C46         C  0.25106808  0.52709790  0.76759491    -0.23400
C47         C  0.22915817  0.52764550  0.74280181    -0.23600
C48         C  0.20272602  0.50864795  0.75313193    -0.00600
H49         H  0.27510555  0.53850076  0.76703880     0.13200
H50         H  0.23281433  0.53929990  0.71895683     0.13200
N51         N  0.75254082  0.48702861  0.76249276    -0.03100
C52         C  0.76045168  0.49459719  0.73068590    -0.00500
C53         C  0.73190291  0.50198307  0.71368208    -0.23400
C54         C  0.70581157  0.49812531  0.73517888    -0.23600
C55         C  0.71894761  0.48933790  0.76513599    -0.00600
H56         H  0.73017362  0.50911133  0.68814607     0.13200
H57         H  0.67998250  0.50178429  0.72959406     0.13200
N58         N  0.96784698  0.42149407  0.95071091    -0.36300
N59         N  0.91746903  0.42710523  0.00213161    -0.56800
N60         N  0.96937697  0.42223889  0.04817397    -0.36200
N61         N  0.02006140  0.41510320  0.99701798    -0.56800
C62         C  0.93969558  0.41786598  0.93407002     0.27300
C63         C  0.99326694  0.41251032  0.93117609     0.27300
C64         C  0.94268521  0.41830760  0.06806575     0.27300
C65         C  0.99617312  0.41226396  0.06515866     0.27300
C66         C  0.89987497  0.43725265  0.97600084     0.36000
C67         C  0.90058321  0.43697838  0.02862667     0.36000
C68         C  0.03809224  0.42206425  0.96971718     0.36000
C69         C  0.03882145  0.42320512  0.02238905     0.36000
C70         C  0.94722190  0.40566964  0.90375928    -0.21500
C71         C  0.98111372  0.40242513  0.90189891    -0.21500
C72         C  0.95255505  0.40500140  0.09790892    -0.21500
C73         C  0.98639173  0.40117361  0.09607141    -0.21500
C74         C  0.87131541  0.45326910  0.98594190    -0.22600
C75         C  0.87170241  0.45292888  0.01941263    -0.22600
C76         C  0.06881274  0.43372625  0.97779065    -0.22600
C77         C  0.06919981  0.43466782  0.01118399    -0.22600
C78         C  0.90843470  0.43039975  0.94351564    -0.17900
C79         C  0.02695826  0.41788713  0.93767161    -0.17900
C80         C  0.02907959  0.41927489  0.05551252    -0.17900
C81         C  0.91055680  0.43016908  0.06093779    -0.17900
H82         H  0.93019081  0.40129237  0.88435830     0.15000
H83         H  0.99528824  0.39497699  0.88090873     0.15000
H84         H  0.93718327  0.39998680  0.11920792     0.15000
H85         H  0.00224131  0.39299642  0.11580118     0.15000
H86         H  0.85208004  0.46380982  0.97070773     0.13300
H87         H  0.85296690  0.46318836  0.03512769     0.13300
H88         H  0.08861511  0.44134432  0.96135249     0.13300
H89         H  0.08948603  0.44297865  0.02552597     0.13300
H90         H  0.96986148  0.43473426  0.97166353     0.26500
H91         H  0.97017750  0.43631140  0.02657120     0.26500
O92         O  0.04663827  0.49029916  0.45122567    -0.79800
O93         O  0.92498616  0.51599037  0.52151457    -0.79800
O94         O  0.96964605  0.49450895  0.44432923    -0.79800
O95         O  0.02724306  0.55219420  0.49100308    -0.79800
O96         O  0.93054026  0.47177441  0.47455732    -0.79900
O97         O  0.06800680  0.52031062  0.50512699    -0.79800
O98         O  0.96026393  0.55085249  0.49972921    -0.79800
O99         O  0.01876849  0.45242808  0.42636538    -0.79800
C100        C  0.04054648  0.47445780  0.42523990     1.09900
C101        C  0.93099465  0.54355364  0.50756627     1.09800
C102        C  0.93971076  0.48588652  0.44772357     1.09900
C103        C  0.05792309  0.54774112  0.49389674     1.09800
O104        O  0.04384915  0.47151512  0.54915826    -0.79800
O105        O  0.96574991  0.42746505  0.52043129    -0.79900
O106        O  0.03672534  0.43062519  0.48620865    -0.79800
O107        O  0.96719279  0.52716178  0.56584967    -0.79800
O108        O  0.96025294  0.47405129  0.56683619    -0.79800
O109        O  0.08259520  0.45667251  0.49691456    -0.79800
O110        O  0.03403476  0.52385813  0.55747512    -0.79800
O111        O  0.97279407  0.42783301  0.46841425    -0.79800
Co112      Co  0.04190591  0.47912165  0.50167683     1.51500
Co113      Co  0.94871260  0.47275893  0.52046726     1.51700
Co114      Co  0.00334620  0.46623159  0.46694870     1.51600
Co115      Co  0.99720388  0.53594724  0.52666563     1.51500
O116        O  0.99398043  0.49089141  0.50743519    -1.41700
C117        C  0.04710754  0.49644764  0.56633177     1.09800
C118        C  0.96209565  0.41337428  0.49408537     1.09900
C119        C  0.06836451  0.43021403  0.49080787     1.09900
C120        C  0.95700662  0.50109869  0.58056315     1.09800
N121        N  0.49904786  0.75497261  0.24132359    -0.03100
C122        C  0.49714135  0.72343573  0.23138189    -0.00500
C123        C  0.49209834  0.70249308  0.25824584    -0.23400
C124        C  0.49212836  0.72114459  0.28529334    -0.23600
C125        C  0.49602866  0.75333570  0.27450286    -0.00600
H126        H  0.49023540  0.67605453  0.25826370     0.13200
H127        H  0.48941321  0.71216952  0.31027538     0.13200
N128        N  0.50979006  0.24433938  0.25785019    -0.03100
C129        C  0.50347499  0.27662194  0.25018008    -0.00500
C130        C  0.49601224  0.29345950  0.27788114    -0.23400
C131        C  0.49882770  0.27161539  0.30363137    -0.23600
C132        C  0.50655698  0.24161067  0.29099160    -0.00600
H133        H  0.49013594  0.31929601  0.27923732     0.13200
H134        H  0.49518007  0.27693696  0.32901238     0.13200
N135        N  0.48917871  0.22227670  0.77510762    -0.03100
C136        C  0.47915449  0.21475335  0.74445452    -0.00500
C137        C  0.46563773  0.24209663  0.72872978    -0.23400
C138        C  0.46666651  0.26712834  0.74977405    -0.23600
C139        C  0.48155506  0.25493147  0.77774657    -0.00600
H140        H  0.45645158  0.24376339  0.70412198     0.13200
H141        H  0.45820438  0.29203600  0.74490235     0.13200
N142        N  0.53098623  0.78680686  0.80589069    -0.03100
C143        C  0.53793318  0.78965517  0.77325336    -0.00500
C144        C  0.54688232  0.75960229  0.76139529    -0.23400
C145        C  0.54634363  0.73755708  0.78720679    -0.23600
C146        C  0.53606581  0.75444650  0.81403953    -0.00600
H147        H  0.55283672  0.75424299  0.73641518     0.13200
H148        H  0.55151576  0.71154102  0.78631955     0.13200
N149        N  0.53156850  0.06443815  0.02857899    -0.36300
N150        N  0.52109576  0.01486746  0.98090252    -0.56800
N151        N  0.51116863  0.96690460  0.03396414    -0.36200
N152        N  0.52040916  0.01598304  0.08190577    -0.56800
C153        C  0.53573264  0.08328132  0.00101615     0.27300
C154        C  0.53539958  0.08397462  0.05410142     0.27300
C155        C  0.50083585  0.94984115  0.00845732     0.27300
C156        C  0.50028049  0.95084757  0.06139226     0.27300
C157        C  0.52768005  0.04024307  0.95988363     0.36000
C158        C  0.51902935  0.98789322  0.96310743     0.36000
C159        C  0.52863602  0.04169862  0.09976663     0.36000
C160        C  0.52053803  0.98908738  0.10212565     0.36000
C161        C  0.54299855  0.11503914  0.00918998    -0.21500
C162        C  0.54276482  0.11549070  0.04256040    -0.21500
C163        C  0.48310259  0.92275449  0.01970770    -0.21500
C164        C  0.48249140  0.92352523  0.05310780    -0.21500
C165        C  0.52919087  0.02931574  0.92836054    -0.22600
C166        C  0.52468506  0.99606953  0.93050281    -0.22600
C167        C  0.53337403  0.03105735  0.13183478    -0.22600
C168        C  0.52958408  0.99762422  0.13300840    -0.22600
C169        C  0.53234857  0.07313896  0.96858466    -0.17900
C170        C  0.53221415  0.07454364  0.08760634    -0.17900
C171        C  0.50968203  0.95770841  0.09352917    -0.17900
C172        C  0.50919190  0.95663780  0.97542108    -0.17900
H173        H  0.54777431  0.13588064  0.99280211     0.15000
H174        H  0.54745433  0.13674676  0.05670422     0.15000
H175        H  0.47223249  0.90407842  0.00532535     0.15000
H176        H  0.47126743  0.90534991  0.06950531     0.15000
H177        H  0.53347982  0.04357681  0.90603638     0.13300
H178        H  0.52442800  0.98006726  0.91013457     0.13300
H179        H  0.53961945  0.04556044  0.15229265     0.13300
H180        H  0.53196025  0.98171797  0.15450661     0.13300
H181        H  0.52474942  0.04041359  0.02997047     0.26500
H182        H  0.52886644  0.98508611  0.03284550     0.26500
N183        N  0.23606445  0.75147275  0.47727140    -0.03100
C184        C  0.23735419  0.71789864  0.47806456    -0.00500
C185        C  0.26971090  0.70719742  0.48047993    -0.23400
C186        C  0.28890610  0.73448839  0.48220699    -0.23600
C187        C  0.26810598  0.76145409  0.47950909    -0.00600
H188        H  0.27847561  0.68206618  0.48111401     0.13200
H189        H  0.31551824  0.73471113  0.48421589     0.13200
N190        N  0.77193466  0.22002184  0.48661899    -0.03100
C191        C  0.73845817  0.21585041  0.48588221    -0.00500
C192        C  0.72277574  0.24592573  0.48193383    -0.23400
C193        C  0.74686453  0.26914303  0.47888953    -0.23600
C194        C  0.77676038  0.25301857  0.48269108    -0.00600
H195        H  0.69645107  0.25058139  0.48141299     0.13200
H196        H  0.74292925  0.29534337  0.47592206     0.13200
N197        N  0.21897008  0.20193809  0.47207685    -0.03100
C198        C  0.21800707  0.23524489  0.46747828    -0.00500
C199        C  0.24921900  0.24703714  0.46010658    -0.23400
C200        C  0.27030574  0.22063026  0.46083923    -0.23600
C201        C  0.25139791  0.19326458  0.46799348    -0.00600
H202        H  0.25614672  0.27246719  0.45636446     0.13200
H203        H  0.29684869  0.22136373  0.45759258     0.13200
N204        N  0.74814098  0.74199178  0.46758911    -0.03100
C205        C  0.71701949  0.75160835  0.45849954    -0.00500
C206        C  0.69933334  0.72506603  0.44849259    -0.23400
C207        C  0.71893846  0.69800567  0.45304643    -0.23600
C208        C  0.74879019  0.70874590  0.46419018    -0.00600
H209        H  0.67381159  0.72509730  0.44101127     0.13200
H210        H  0.71190820  0.67293546  0.44922523     0.13200
N211        N  0.93537889  0.96789011  0.50668700    -0.36300
N212        N  0.98611169  0.01771622  0.50537571    -0.56800
N213        N  0.03583221  0.96962865  0.49205038    -0.36200
N214        N  0.98594139  0.91931642  0.49255294    -0.56800
C215        C  0.91664933  0.99551009  0.50438732     0.27300
C216        C  0.91618080  0.94257356  0.49857347     0.27300
C217        C  0.05205545  0.99760449  0.48371072     0.27300
C218        C  0.05248309  0.94463839  0.47856842     0.27300
C219        C  0.96039330  0.03510831  0.51678663     0.36000
C220        C  0.01318948  0.03593012  0.50956446     0.36000
C221        C  0.96003918  0.89926681  0.49880389     0.36000
C222        C  0.01347272  0.90032484  0.49415989     0.36000
C223        C  0.88486087  0.98759910  0.49572839    -0.21500
C224        C  0.88440055  0.95415711  0.49257025    -0.21500
C225        C  0.07935682  0.99032987  0.46453176    -0.21500
C226        C  0.07968184  0.95678672  0.46135824    -0.21500
C227        C  0.97114189  0.06441799  0.52873747    -0.22600
C228        C  0.00479068  0.06479710  0.52445978    -0.22600
C229        C  0.97124251  0.86727491  0.50382822    -0.22600
C230        C  0.00506244  0.86813649  0.50197758    -0.22600
C231        C  0.92727972  0.02745742  0.51106739    -0.17900
C232        C  0.92642012  0.90923674  0.49771164    -0.17900
C233        C  0.04545213  0.91106003  0.48464510    -0.17900
C234        C  0.04415918  0.02889581  0.49548392    -0.17900
H235        H  0.86401919  0.00411814  0.49249294     0.15000
H236        H  0.86297790  0.94013294  0.48644062     0.15000
H237        H  0.09759987  0.00729890  0.45462550     0.15000
H238        H  0.09823932  0.94281885  0.44858167     0.15000
H239        H  0.95611752  0.08403251  0.53819285     0.13300
H240        H  0.02093354  0.08479147  0.52994299     0.13300
H241        H  0.95676848  0.84538385  0.50816254     0.13300
H242        H  0.02141949  0.84711985  0.50445826     0.13300
H243        H  0.95907554  0.96601852  0.51585998     0.26500
H244        H  0.01727444  0.96706535  0.50963222     0.26500
O245        O  0.48598607  0.91321072  0.47782477    -0.79800
O246        O  0.54955335  0.03720717  0.50539422    -0.79800
O247        O  0.51147423  0.01738629  0.44225708    -0.79800
O248        O  0.56399962  0.96774782  0.50247616    -0.79800
O249        O  0.49502526  0.05501554  0.47453185    -0.79900
O250        O  0.53781594  0.92229614  0.51839912    -0.79800
O251        O  0.57531528  0.01448238  0.54742653    -0.79800
O252        O  0.50482471  0.95060309  0.44276630    -0.79800
C253        C  0.49679016  0.92130483  0.44961222     1.09900
C254        C  0.57498107  0.03542721  0.52395198     1.09800
C255        C  0.50790096  0.04734945  0.44780740     1.09900
C256        C  0.56310507  0.93679918  0.50568358     1.09800
O257        O  0.48873146  0.94879618  0.56631166    -0.79800
O258        O  0.45074317  0.02760944  0.52216189    -0.79900
O259        O  0.43873402  0.95526686  0.46830807    -0.79800
O260        O  0.51070167  0.02283147  0.56613389    -0.79800
O261        O  0.50098435  0.06829233  0.53756735    -0.79800
O262        O  0.44143754  0.94565822  0.52109413    -0.79800
O263        O  0.54057982  0.95981551  0.56754117    -0.79800
O264        O  0.44374432  0.02223635  0.46943537    -0.79800
Co265      Co  0.48896273  0.93555546  0.52063909     1.51500
Co266      Co  0.49942192  0.02859720  0.51571051     1.51700
Co267      Co  0.47669714  0.98638322  0.45836202     1.51600
Co268      Co  0.53638928  0.99454260  0.53140155     1.51500
O269        O  0.49774797  0.98186547  0.50335931    -1.41700
C270        C  0.51555760  0.94664548  0.58100292     1.09800
C271        C  0.43344217  0.03221985  0.49684543     1.09900
C272        C  0.42598712  0.94381493  0.49481899     1.09900
C273        C  0.50392820  0.05409299  0.56514996     1.09800
C274        C  0.59282915  0.91720777  0.49678610     0.01700
C275        C  0.61356005  0.90381335  0.52128968     0.04500
C276        C  0.63929074  0.88195134  0.51328351    -0.11500
C277        C  0.64299392  0.87146708  0.48109463     0.23800
C278        C  0.62383866  0.88664134  0.45627542    -0.12100
C279        C  0.60025010  0.91086195  0.46398041     0.05200
C280        C  0.66304407  0.84142591  0.47475828     0.27600
C281        C  0.69275237  0.84255433  0.45627347    -0.12800
C282        C  0.71004208  0.81324688  0.44965604     0.05700
C283        C  0.70001394  0.78329724  0.46480889    -0.08800
C284        C  0.67132054  0.78274035  0.48491179     0.06600
C285        C  0.65192361  0.81106940  0.48795785    -0.13100
Br286      Br  0.62750599  0.87226941  0.41218778    -0.05200
Br287      Br  0.60724286  0.91574792  0.56582773     0.00400
Br288      Br  0.74554291  0.81397092  0.41801258     0.00900
Br289      Br  0.60936010  0.80785622  0.50968799    -0.03500
Br290      Br  0.57870699  0.93543217  0.42944502     0.01000
Br291      Br  0.66843745  0.86469431  0.54671050    -0.02800
Br292      Br  0.71009510  0.88407534  0.44045888    -0.03700
Br293      Br  0.65949543  0.74391290  0.51093159     0.00300
C294        C  0.90075208  0.88357269  0.49418834     0.01700
C295        C  0.89307529  0.86156126  0.52043414     0.04500
C296        C  0.87117948  0.83560474  0.51601364    -0.11500
C297        C  0.85258536  0.83468890  0.48734197     0.23800
C298        C  0.85869401  0.85799505  0.46175459    -0.12100
C299        C  0.88430864  0.88080116  0.46433647     0.05200
C300        C  0.82672282  0.80930294  0.48411112     0.27600
C301        C  0.83126579  0.78420810  0.46200144    -0.12800
C302        C  0.80520224  0.76278351  0.45583630     0.05700
C303        C  0.77574356  0.76310109  0.47503880    -0.08800
C304        C  0.77307557  0.78627165  0.49985961     0.06600
C305        C  0.79738410  0.81047046  0.50279358    -0.13100
Br306      Br  0.83167329  0.85915764  0.42339278    -0.05200
Br307      Br  0.91193042  0.86728311  0.56266830     0.00400
Br308      Br  0.80925561  0.73704671  0.41784344     0.00900
Br309      Br  0.78996339  0.84610047  0.53170894    -0.03500
Br310      Br  0.89718674  0.90779052  0.42676114     0.01000
Br311      Br  0.86808674  0.80026421  0.54835936    -0.02800
Br312      Br  0.87338885  0.77959706  0.43983005    -0.03700
Br313      Br  0.73775599  0.78454197  0.53164689     0.00300
C314        C  0.26689757  0.16040657  0.47422085     0.01700
C315        C  0.28328748  0.14449110  0.44853276     0.04500
C316        C  0.30273959  0.11640288  0.45507638    -0.11500
C317        C  0.31179681  0.10798670  0.48726830     0.23800
C318        C  0.29595993  0.12379113  0.51314245    -0.12100
C319        C  0.27268676  0.14908195  0.50661683     0.05200
C320        C  0.34296541  0.08889124  0.49275210     0.27600
C321        C  0.34303899  0.05690075  0.50701944    -0.12800
C322        C  0.37315264  0.03959385  0.51129525     0.05700
C323        C  0.40275207  0.05249938  0.49789067    -0.08800
C324        C  0.40248536  0.08460222  0.48364135     0.06600
C325        C  0.37315475  0.10320230  0.48263548    -0.13100
Br326      Br  0.30894064  0.11348146  0.55740058    -0.05200
Br327      Br  0.28619063  0.16462146  0.40534025     0.00400
Br328      Br  0.37387625  0.99859925  0.53594935     0.00900
Br329      Br  0.37442815  0.14866853  0.46720434    -0.03500
Br330      Br  0.25395600  0.17208517  0.54248878     0.01000
Br331      Br  0.32056953  0.09165625  0.41969559    -0.02800
Br332      Br  0.30187544  0.03618624  0.51907029    -0.03700
Br333      Br  0.44190875  0.10416424  0.46538298     0.00300
C334        C  0.19124508  0.17971242  0.47545944     0.01700
C335        C  0.18440498  0.15828894  0.45016712     0.04500
C336        C  0.16026725  0.13398134  0.45432639    -0.11500
C337        C  0.14067251  0.13244765  0.48273425     0.23800
C338        C  0.14510595  0.15548336  0.50685466    -0.12100
C339        C  0.17069908  0.17862475  0.50364603     0.05200
C340        C  0.11530007  0.10662063  0.48695956     0.27600
C341        C  0.08577477  0.10904953  0.46926283    -0.12800
C342        C  0.06315757  0.08309367  0.47093482     0.05700
C343        C  0.06884079  0.05567584  0.49221756    -0.08800
C344        C  0.09737781  0.05434713  0.51147037     0.06600
C345        C  0.12122233  0.07905613  0.50780972    -0.13100
Br346      Br  0.11566090  0.15521808  0.54419750    -0.05200
Br347      Br  0.20487837  0.16415408  0.40807098     0.00400
Br348      Br  0.02469285  0.08507598  0.44369725     0.00900
Br349      Br  0.16238516  0.07478909  0.53073761    -0.03500
Br350      Br  0.17682728  0.20787444  0.53848298     0.01000
Br351      Br  0.15402150  0.10248304  0.42101306    -0.02800
Br352      Br  0.07639087  0.14811663  0.44289797    -0.03700
Br353      Br  0.10291917  0.01957520  0.54409025     0.00300
C354        C  0.60320914  0.05761048  0.51750881     0.01700
C355        C  0.60581880  0.08640022  0.53517985     0.04500
C356        C  0.63130607  0.10870725  0.52824943    -0.11500
C357        C  0.65435102  0.10269272  0.50323514     0.23800
C358        C  0.65209113  0.07390228  0.48554127    -0.12100
C359        C  0.62639943  0.05146836  0.49253212     0.05200
C360        C  0.67967699  0.12785564  0.49505402     0.27600
C361        C  0.67424892  0.15081230  0.46928557    -0.12800
C362        C  0.69483969  0.17829502  0.46509697     0.05700
C363        C  0.71988498  0.18421548  0.48806335    -0.08800
C364        C  0.72460811  0.16115260  0.51421557     0.06600
C365        C  0.70603351  0.13216131  0.51633709    -0.13100
Br366      Br  0.68412790  0.06556836  0.45171840    -0.05200
Br367      Br  0.57347744  0.09707162  0.56761176     0.00400
Br368      Br  0.68758023  0.20766515  0.42774799     0.00900
Br369      Br  0.71486406  0.09906882  0.55000103    -0.03500
Br370      Br  0.62270645  0.01269348  0.46760586     0.01000
Br371      Br  0.63409860  0.14821869  0.55265285    -0.02800
Br372      Br  0.63715241  0.14549576  0.44085250    -0.03700
Br373      Br  0.75113436  0.17117629  0.55087524     0.00300
C374        C  0.79690700  0.19433639  0.48866758     0.01700
C375        C  0.82077233  0.19314789  0.51368148     0.04500
C376        C  0.84398448  0.16734032  0.51556010    -0.11500
C377        C  0.84060292  0.14013879  0.49588903     0.23800
C378        C  0.81653906  0.14084833  0.47142853    -0.12100
C379        C  0.79674625  0.16892849  0.46624495     0.05200
C380        C  0.86281361  0.11120483  0.50030189     0.27600
C381        C  0.88613974  0.10405751  0.47580361    -0.12800
C382        C  0.90503092  0.07515692  0.47837238     0.05700
C383        C  0.90384753  0.05543673  0.50723615    -0.08800
C384        C  0.88248147  0.06384224  0.53286239     0.06600
C385        C  0.86072307  0.09071092  0.52877422    -0.13100
Br386      Br  0.81002439  0.10309770  0.44535073    -0.05200
Br387      Br  0.81977309  0.22331070  0.54853978     0.00400
Br388      Br  0.93228169  0.06229223  0.44211328     0.00900
Br389      Br  0.82812669  0.09917015  0.56212193    -0.03500
Br390      Br  0.77180645  0.17352314  0.42672508     0.01000
Br391      Br  0.88075367  0.16935233  0.54490082    -0.02800
Br392      Br  0.89353682  0.13471584  0.43955454    -0.03700
Br393      Br  0.88440820  0.03946780  0.57388628     0.00300
C394        C  0.39511310  0.92412326  0.49408763     0.01700
C395        C  0.39176876  0.89523635  0.51426969     0.04500
C396        C  0.36548484  0.87365702  0.50965885    -0.11500
C397        C  0.34256657  0.88010259  0.48470342     0.23800
C398        C  0.34482422  0.90937968  0.46557244    -0.12100
C399        C  0.37050252  0.93169604  0.47073179     0.05200
C400        C  0.31768736  0.85462133  0.47794150     0.27600
C401        C  0.32446978  0.83191819  0.45380224    -0.12800
C402        C  0.30604331  0.80292175  0.45268222     0.05700
C403        C  0.28138992  0.79558819  0.47667759    -0.08800
C404        C  0.27396017  0.81910746  0.50015443     0.06600
C405        C  0.29093154  0.84919052  0.49961435    -0.13100
Br406      Br  0.31341629  0.91815401  0.43143429    -0.05200
Br407      Br  0.42396941  0.88268488  0.54699475     0.00400
Br408      Br  0.31615681  0.77262254  0.41874645     0.00900
Br409      Br  0.27977548  0.88218707  0.53040156    -0.03500
Br410      Br  0.37088130  0.97317167  0.44647901     0.01000
Br411      Br  0.36191206  0.83379048  0.53651587    -0.02800
Br412      Br  0.36093122  0.83936568  0.42382743    -0.03700
Br413      Br  0.24539189  0.80856076  0.53663598     0.00300
C414        C  0.20664202  0.77203440  0.47601645     0.01700
C415        C  0.18214533  0.76904781  0.50085187     0.04500
C416        C  0.15357874  0.78888813  0.49966472    -0.11500
C417        C  0.15026173  0.81362003  0.47517117     0.23800
C418        C  0.17437866  0.81682531  0.45036650    -0.12100
C419        C  0.20204215  0.79568752  0.45030326     0.05200
C420        C  0.12319614  0.83828350  0.47734596     0.27600
C421        C  0.09518800  0.83659687  0.45757591    -0.12800
C422        C  0.07081043  0.86139978  0.45837034     0.05700
C423        C  0.07274677  0.88635364  0.48126016    -0.08800
C424        C  0.10037188  0.88716264  0.50191563     0.06600
C425        C  0.12593304  0.86386690  0.49916532    -0.13100
Br426      Br  0.16972324  0.85092448  0.41683543    -0.05200
Br427      Br  0.18905335  0.74117280  0.53901542     0.00400
Br428      Br  0.03541872  0.86151619  0.42735139     0.00900
Br429      Br  0.16487769  0.86676223  0.52551635    -0.03500
Br430      Br  0.23236542  0.79883719  0.41392190     0.01000
Br431      Br  0.11907187  0.78298488  0.53215045    -0.02800
Br432      Br  0.08981358  0.79959020  0.43035968    -0.03700
Br433      Br  0.10300761  0.91933706  0.53502740     0.00300
C434        C  0.53521241  0.81936916  0.75131155     0.01700
C435        C  0.50388399  0.83286205  0.74371754     0.04500
C436        C  0.50057082  0.85652929  0.71809314    -0.11500
C437        C  0.52861719  0.86746189  0.70034210     0.23800
C438        C  0.56002872  0.85512334  0.70867716    -0.12100
C439        C  0.56317327  0.82995739  0.73274174     0.05200
C440        C  0.52471714  0.88798076  0.66997239     0.27600
C441        C  0.52719980  0.87313486  0.63964590    -0.12800
C442        C  0.52464926  0.89232568  0.61062557     0.05700
C443        C  0.51794451  0.92634873  0.61167149    -0.08800
C444        C  0.51134270  0.94006736  0.64205692     0.06600
C445        C  0.51702365  0.92161021  0.67111565    -0.13100
Br446      Br  0.59862283  0.87153857  0.68551171    -0.05200
Br447      Br  0.46462034  0.81520945  0.76418905     0.00400
Br448      Br  0.52741025  0.87075687  0.56985492     0.00900
Br449      Br  0.51433097  0.94227997  0.71247358    -0.03500
Br450      Br  0.60546330  0.80780174  0.73699259     0.01000
Br451      Br  0.45721765  0.87184206  0.70524578    -0.02800
Br452      Br  0.53293104  0.82610387  0.63798973    -0.03700
Br453      Br  0.48907086  0.98166028  0.64407010     0.00300
C454        C  0.52386920  0.81287475  0.82814095     0.01700
C455        C  0.54677004  0.83849417  0.83168258     0.04500
C456        C  0.54060433  0.86319090  0.85389106    -0.11500
C457        C  0.51439831  0.85993266  0.87646207     0.23800
C458        C  0.49211148  0.83391447  0.87416964    -0.12100
C459        C  0.49555833  0.81181862  0.84883251     0.05200
C460        C  0.51129089  0.88312593  0.90331941     0.27600
C461        C  0.53466781  0.88214756  0.92850766    -0.12800
C462        C  0.53357399  0.90590794  0.95234276     0.05700
C463        C  0.50793163  0.92947690  0.95233097    -0.08800
C464        C  0.48327226  0.92903482  0.92847466     0.06600
C465        C  0.48577193  0.90685053  0.90320193    -0.13100
Br466      Br  0.45759469  0.82781603  0.90665910    -0.05200
Br467      Br  0.58945044  0.83755012  0.81100962     0.00400
Br468      Br  0.56845294  0.90747914  0.98379478     0.00900
Br469      Br  0.45573650  0.91050570  0.86719083    -0.03500
Br470      Br  0.46023815  0.78171554  0.84245289     0.01000
Br471      Br  0.56860076  0.90132069  0.85398025    -0.02800
Br472      Br  0.56892711  0.84890509  0.92979390    -0.03700
Br473      Br  0.44674166  0.95958618  0.92994077     0.00300
C474        C  0.49932977  0.07361374  0.59518111     0.01700
C475        C  0.48136386  0.10378961  0.59382771     0.04500
C476        C  0.48173275  0.12470108  0.62032248    -0.11500
C477        C  0.49452104  0.11354158  0.65053266     0.23800
C478        C  0.51026342  0.08262664  0.65272373    -0.12100
C479        C  0.51579142  0.06465141  0.62447923     0.05200
C480        C  0.49139783  0.13475017  0.67943129     0.27600
C481        C  0.51927691  0.15019642  0.69212191    -0.12800
C482        C  0.51546246  0.17343412  0.71660229     0.05700
C483        C  0.48363050  0.18350978  0.72679541    -0.08800
C484        C  0.45572106  0.16837316  0.71328459     0.06600
C485        C  0.45981013  0.14256844  0.69175606    -0.13100
Br486      Br  0.52396711  0.06458815  0.69443193    -0.05200
Br487      Br  0.45523699  0.11746285  0.55654373     0.00400
Br488      Br  0.55393830  0.19456810  0.73265640     0.00900
Br489      Br  0.42178242  0.11883492  0.67764727    -0.03500
Br490      Br  0.55123086  0.03265678  0.62509948     0.01000
Br491      Br  0.46605218  0.16946142  0.61469622    -0.02800
Br492      Br  0.56250582  0.14210105  0.67361592    -0.03700
Br493      Br  0.41138981  0.18466318  0.72119670     0.00300
C494        C  0.53173455  0.09907702  0.94203732     0.01700
C495        C  0.55851456  0.10304093  0.91998610     0.04500
C496        C  0.55560660  0.12459985  0.89258535    -0.11500
C497        C  0.52658356  0.14347203  0.88810876     0.23800
C498        C  0.50119591  0.14180045  0.91190684    -0.12100
C499        C  0.50335056  0.11907037  0.93830145     0.05200
C500        C  0.52063972  0.16200611  0.85689599     0.27600
C501        C  0.53608478  0.19209523  0.84942987    -0.12800
C502        C  0.52939225  0.20910489  0.81973435     0.05700
C503        C  0.50204214  0.20016639  0.80075865    -0.08800
C504        C  0.48561024  0.17053702  0.80977463     0.06600
C505        C  0.49747725  0.15005830  0.83530073    -0.13100
Br506      Br  0.46283946  0.16998446  0.90767911    -0.05200
Br507      Br  0.59861246  0.07801756  0.92676943     0.00400
Br508      Br  0.56021960  0.24190823  0.80450233     0.00900
Br509      Br  0.48095767  0.10591930  0.84172726    -0.03500
Br510      Br  0.46658290  0.11423850  0.96848645     0.01000
Br511      Br  0.59052274  0.12690719  0.86028683    -0.02800
Br512      Br  0.56478416  0.21093958  0.88065102    -0.03700
Br513      Br  0.44317476  0.16002537  0.79331975     0.00300
C514        C  0.50932211  0.21151443  0.31221725     0.01700
C515        C  0.53951424  0.19417895  0.31493819     0.04500
C516        C  0.54215010  0.16680079  0.33660161    -0.11500
C517        C  0.51497779  0.15722057  0.35624279     0.23800
C518        C  0.48526961  0.17522502  0.35472431    -0.12100
C519        C  0.48242316  0.20242992  0.33301242     0.05200
C520        C  0.51751454  0.12822013  0.37874242     0.27600
C521        C  0.51068779  0.09691114  0.36755959    -0.12800
C522        C  0.50980616  0.06961166  0.38953941     0.05700
C523        C  0.51597723  0.07369158  0.42302504    -0.08800
C524        C  0.52562274  0.10494820  0.43336822     0.06600
C525        C  0.52550882  0.13217489  0.41146284    -0.13100
Br526      Br  0.44850993  0.16260914  0.38277299    -0.05200
Br527      Br  0.57840379  0.20978886  0.29217217     0.00400
Br528      Br  0.49801928  0.02761395  0.37319368     0.00900
Br529      Br  0.53460107  0.17542277  0.42653201    -0.03500
Br530      Br  0.44104454  0.22664343  0.33188516     0.01000
Br531      Br  0.58319814  0.14267654  0.34026831    -0.02800
Br532      Br  0.50072118  0.09216813  0.32215439    -0.03700
Br533      Br  0.53964803  0.11126479  0.47737206     0.00300
C534        C  0.51689445  0.21860555  0.23515579     0.01700
C535        C  0.49617590  0.19085352  0.23370985     0.04500
C536        C  0.50219698  0.16703864  0.21044719    -0.11500
C537        C  0.52555250  0.17293768  0.18533081     0.23800
C538        C  0.54513929  0.20119745  0.18555887    -0.12100
C539        C  0.54277737  0.22227928  0.21179581     0.05200
C540        C  0.52882111  0.14965163  0.15850461     0.27600
C541        C  0.55685044  0.12905001  0.15624941    -0.12800
C542        C  0.55909395  0.10615388  0.13157644     0.05700
C543        C  0.53184488  0.10122802  0.11140868    -0.08800
C544        C  0.50395532  0.12210346  0.11340973     0.06600
C545        C  0.50317205  0.14720237  0.13587782    -0.13100
Br546      Br  0.57382036  0.21207364  0.14893503    -0.05200
Br547      Br  0.45618516  0.18719573  0.25915654     0.00400
Br548      Br  0.59955294  0.08184510  0.12505649     0.00900
Br549      Br  0.46707751  0.17843295  0.13554052    -0.03500
Br550      Br  0.57684893  0.25424116  0.21634503     0.01000
Br551      Br  0.47770209  0.12653206  0.21235664    -0.02800
Br552      Br  0.59153131  0.13112560  0.18777778    -0.03700
Br553      Br  0.46647035  0.11604746  0.08572294     0.00300
C554        C  0.49648132  0.89723381  0.42342515     0.01700
C555        C  0.47876936  0.90473462  0.39463060     0.04500
C556        C  0.47891496  0.88274574  0.36908872    -0.11500
C557        C  0.49602334  0.85269105  0.37232941     0.23800
C558        C  0.51297367  0.84464763  0.40137730    -0.12100
C559        C  0.51266372  0.86655403  0.42711605     0.05200
C560        C  0.49515739  0.82901850  0.34566355     0.27600
C561        C  0.46778525  0.80841055  0.34259940    -0.12800
C562        C  0.46733568  0.78523091  0.31806782     0.05700
C563        C  0.49511491  0.78124771  0.29718600    -0.08800
C564        C  0.52324730  0.80081553  0.30188940     0.06600
C565        C  0.52230078  0.82604480  0.32434780    -0.13100
Br566      Br  0.53681044  0.80359184  0.40571982    -0.05200
Br567      Br  0.45145226  0.94366292  0.39110931     0.00400
Br568      Br  0.42893397  0.75778803  0.31486855     0.00900
Br569      Br  0.55853070  0.85631633  0.32662782    -0.03500
Br570      Br  0.53392719  0.85406256  0.46745413     0.01000
Br571      Br  0.45570212  0.89370854  0.32938759    -0.02800
Br572      Br  0.43129167  0.81127947  0.37295118    -0.03700
Br573      Br  0.56540246  0.78922333  0.28387928     0.00300
C574        C  0.50042434  0.78456927  0.22105085     0.01700
C575        C  0.53063274  0.79585050  0.20782421     0.04500
C576        C  0.53231043  0.82733447  0.19290003    -0.11500
C577        C  0.50303230  0.84330059  0.18231148     0.23800
C578        C  0.47239120  0.82927392  0.19143046    -0.12100
C579        C  0.47142703  0.80293474  0.21445682     0.05200
C580        C  0.50471653  0.87329099  0.16036165     0.27600
C581        C  0.48861487  0.90283655  0.16863538    -0.12800
C582        C  0.48847085  0.92995735  0.14629366     0.05700
C583        C  0.50917934  0.92980108  0.11832266    -0.08800
C584        C  0.52805683  0.90140764  0.11217544     0.06600
C585        C  0.52287692  0.87244353  0.13087007    -0.13100
Br586      Br  0.43220530  0.84314368  0.16999536    -0.05200
Br587      Br  0.56885178  0.76759443  0.20681309     0.00400
Br588      Br  0.45853407  0.96612083  0.15348260     0.00900
Br589      Br  0.53861642  0.83138143  0.11423512    -0.03500
Br590      Br  0.43013871  0.79169408  0.23551645     0.01000
Br591      Br  0.57458430  0.84860560  0.18833857    -0.02800
Br592      Br  0.46738497  0.90680882  0.21069245    -0.03700
Br593      Br  0.56192632  0.90217767  0.07866025     0.00300
C594        C  0.94046007  0.38396901  0.49263445     0.01700
C595        C  0.93608820  0.36203582  0.52010030     0.04500
C596        C  0.91392413  0.33570606  0.51871870    -0.11500
C597        C  0.89189953  0.33434997  0.49272660     0.23800
C598        C  0.89429104  0.35739807  0.46668798    -0.12100
C599        C  0.92032166  0.37985816  0.46497817     0.05200
C600        C  0.86466153  0.31024429  0.49317211     0.27600
C601        C  0.86419885  0.28570382  0.46992204    -0.12800
C602        C  0.83544085  0.26722805  0.46578798     0.05700
C603        C  0.80802306  0.27119592  0.48685463    -0.08800
C604        C  0.80928810  0.29485930  0.51120054     0.06600
C605        C  0.83703882  0.31490462  0.51361961    -0.13100
Br606      Br  0.85981829  0.35976776  0.43473362    -0.05200
Br607      Br  0.95786626  0.36807928  0.56088826     0.00400
Br608      Br  0.83256279  0.24006940  0.42869248     0.00900
Br609      Br  0.83611571  0.35041251  0.54346049    -0.03500
Br610      Br  0.92635871  0.40439223  0.42423755     0.01000
Br611      Br  0.91285677  0.30182029  0.55276259    -0.02800
Br612      Br  0.90245297  0.27910895  0.44229323    -0.03700
Br613      Br  0.77350612  0.29951508  0.54244974     0.00300
C614        C  0.90386978  0.56819641  0.50244465     0.01700
C615        C  0.87206761  0.56335449  0.51729587     0.04500
C616        C  0.84668023  0.58640264  0.51146780    -0.11500
C617        C  0.85335301  0.61583084  0.49400530     0.23800
C618        C  0.88494798  0.62192066  0.48101378    -0.12100
C619        C  0.90964664  0.59768353  0.48352973     0.05200
C620        C  0.82646276  0.63946982  0.48686793     0.27600
C621        C  0.81233116  0.64047034  0.45583177    -0.12800
C622        C  0.78736046  0.66338938  0.44827509     0.05700
C623        C  0.77631280  0.68557047  0.47195774    -0.08800
C624        C  0.78916992  0.68282325  0.50371008     0.06600
C625        C  0.81499522  0.66060621  0.51081816    -0.13100
Br626      Br  0.89378038  0.66372844  0.45890688    -0.05200
Br627      Br  0.86151808  0.52648809  0.54678645     0.00400
Br628      Br  0.76895241  0.66382664  0.40503039     0.00900
Br629      Br  0.83460251  0.65875349  0.55343321    -0.03500
Br630      Br  0.95000251  0.60581747  0.45876085     0.01000
Br631      Br  0.80208692  0.57742186  0.52653425    -0.02800
Br632      Br  0.82745589  0.61015478  0.42363745    -0.03700
Br633      Br  0.76859564  0.70546047  0.53883390     0.00300
C634        C  0.08780717  0.39912527  0.48916274     0.01700
C635        C  0.11889133  0.39885735  0.47297163     0.04500
C636        C  0.13672663  0.36934691  0.47030753    -0.11500
C637        C  0.12380831  0.33981201  0.48361169     0.23800
C638        C  0.09320621  0.33982452  0.50004855    -0.12100
C639        C  0.07544533  0.36940247  0.50311105     0.05200
C640        C  0.14406129  0.30944348  0.48242262     0.27600
C641        C  0.14049642  0.28785004  0.45683871    -0.12800
C642        C  0.16346348  0.26212932  0.45282808     0.05700
C643        C  0.19004754  0.25786151  0.47451541    -0.08800
C644        C  0.19295318  0.27933955  0.50061501     0.06600
C645        C  0.16956616  0.30442723  0.50493383    -0.13100
Br646      Br  0.07644537  0.29929351  0.51929005    -0.05200
Br647      Br  0.13754203  0.43840252  0.45356481     0.00400
Br648      Br  0.16032611  0.23577153  0.41532946     0.00900
Br649      Br  0.17326991  0.33337124  0.54079017    -0.03500
Br650      Br  0.03600106  0.36925966  0.52930483     0.01000
Br651      Br  0.17949641  0.36923141  0.44887881    -0.02800
Br652      Br  0.10525271  0.29500861  0.42616677    -0.03700
Br653      Br  0.22982383  0.27569347  0.53005045     0.00300
C654        C  0.08166973  0.57476084  0.48610340     0.01700
C655        C  0.11158204  0.56856029  0.46909988     0.04500
C656        C  0.13490962  0.59366656  0.46377928    -0.11500
C657        C  0.12934647  0.62475567  0.47652433     0.23800
C658        C  0.09921360  0.63152249  0.49240696    -0.12100
C659        C  0.07544715  0.60669526  0.49728839     0.05200
C660        C  0.15666872  0.64892068  0.47658250     0.27600
C661        C  0.17996418  0.64684037  0.50167468    -0.12800
C662        C  0.20573955  0.66969345  0.50253205     0.05700
C663        C  0.20896599  0.69463029  0.47764721    -0.08800
C664        C  0.18683491  0.69498962  0.45131811     0.06600
C665        C  0.16018368  0.67295348  0.45137127    -0.13100
Br666      Br  0.09113501  0.67483791  0.50820848    -0.05200
Br667      Br  0.12143960  0.52576481  0.45315128     0.00400
Br668      Br  0.23607475  0.66635528  0.53853224     0.00900
Br669      Br  0.12900912  0.67466438  0.41629454    -0.03500
Br670      Br  0.03616446  0.61602785  0.52256978     0.01000
Br671      Br  0.17499533  0.58564352  0.43931334    -0.02800
Br672      Br  0.17683585  0.61182824  0.53456556    -0.03700
Br673      Br  0.19536024  0.72191133  0.41284535     0.00300
C674        C  0.79406057  0.49370793  0.71471657     0.01700
C675        C  0.82059963  0.51249262  0.72582079     0.04500
C676        C  0.85179227  0.51132298  0.71022948    -0.11500
C677        C  0.85576206  0.49516090  0.68082312     0.23800
C678        C  0.82938610  0.47682106  0.66916062    -0.12100
C679        C  0.79911568  0.47518783  0.68647632     0.05200
C680        C  0.88631682  0.49970622  0.66041329     0.27600
C681        C  0.89033767  0.52841814  0.64074935    -0.12800
C682        C  0.91592251  0.53054071  0.61710123     0.05700
C683        C  0.93657393  0.50281379  0.61138136    -0.08800
C684        C  0.93409122  0.47524288  0.63344947     0.06600
C685        C  0.90987019  0.47438422  0.65847968    -0.13100
Br686      Br  0.83456286  0.45451947  0.62876119    -0.05200
Br687      Br  0.81379038  0.54437428  0.75838359     0.00400
Br688      Br  0.92051524  0.57158481  0.59236769     0.00900
Br689      Br  0.90860293  0.43867092  0.69058744    -0.03500
Br690      Br  0.76506393  0.44674347  0.67126970     0.01000
Br691      Br  0.88930676  0.53211040  0.72887764    -0.02800
Br692      Br  0.85966603  0.56454435  0.64553338    -0.03700
Br693      Br  0.96334427  0.43806248  0.63005405     0.00300
C694        C  0.88441349  0.43891147  0.91756296     0.01700
C695        C  0.85509337  0.42087756  0.91492792     0.04500
C696        C  0.83215498  0.42999609  0.89087350    -0.11500
C697        C  0.83996336  0.45502772  0.86766649     0.23800
C698        C  0.86967756  0.47234027  0.86957885    -0.12100
C699        C  0.89105691  0.46539263  0.89546840     0.05200
C700        C  0.81718250  0.46288188  0.84084749     0.27600
C701        C  0.81804104  0.44407608  0.81296327    -0.12800
C702        C  0.79629374  0.45141897  0.78735133     0.05700
C703        C  0.77498075  0.47905431  0.78872141    -0.08800
C704        C  0.77541645  0.49858921  0.81648442     0.06600
C705        C  0.79541735  0.48963520  0.84295000    -0.13100
Br706      Br  0.88135752  0.50495933  0.83624383    -0.05200
Br707      Br  0.84687014  0.38314852  0.94341335     0.00400
Br708      Br  0.79471866  0.42184137  0.75202176     0.00900
Br709      Br  0.79315987  0.51397375  0.88231763    -0.03500
Br710      Br  0.92859208  0.49312268  0.90138564     0.01000
Br711      Br  0.78987695  0.40868214  0.88967250    -0.02800
Br712      Br  0.84921474  0.40815398  0.81022711    -0.03700
Br713      Br  0.75210176  0.53987272  0.81749432     0.00300
C714        C  0.17700857  0.49978304  0.72976812     0.01700
C715        C  0.18716891  0.48472279  0.70070490     0.04500
C716        C  0.16496850  0.48177142  0.67513968    -0.11500
C717        C  0.13226058  0.49286869  0.67865983     0.23800
C718        C  0.12153125  0.50642712  0.70799343    -0.12100
C719        C  0.14405306  0.51064377  0.73326496     0.05200
C720        C  0.11026598  0.49344044  0.65022067     0.27600
C721        C  0.10960742  0.52135709  0.62923450    -0.12800
C722        C  0.08919517  0.52228450  0.60187095     0.05700
C723        C  0.06906896  0.49498323  0.59519185    -0.17500
C724        C  0.07135080  0.46627813  0.61561738     0.06600
C725        C  0.09161270  0.46578378  0.64322296    -0.13100
Br726      Br  0.07631297  0.52092467  0.71249542    -0.05200
Br727      Br  0.23180827  0.46819141  0.69533096     0.00400
Br728      Br  0.09205379  0.56041772  0.57268947     0.00900
Br729      Br  0.09461199  0.42704723  0.67147131    -0.03500
Br730      Br  0.13047113  0.53477689  0.77051434     0.01000
Br731      Br  0.17980082  0.46442554  0.63432801    -0.02800
Br732      Br  0.13804474  0.55794051  0.63756611    -0.03700
Br733      Br  0.04746714  0.42710873  0.60633700     0.00300
C734        C  0.05082408  0.42318254  0.90979931     0.01700
C735        C  0.07633564  0.40030361  0.90393733     0.04500
C736        C  0.10276545  0.40875335  0.88252021    -0.11500
C737        C  0.10212697  0.43890233  0.86443047     0.23800
C738        C  0.07432387  0.45972883  0.86723243    -0.12100
C739        C  0.04982379  0.45280839  0.89100112     0.05200
C740        C  0.13155289  0.45086365  0.84515252     0.27600
C741        C  0.14896701  0.47806462  0.85583984    -0.12800
C742        C  0.17198909  0.49418931  0.83509743     0.05700
C743        C  0.18248730  0.48028267  0.80560759    -0.08800
C744        C  0.16713497  0.45083817  0.79650402     0.06600
C745        C  0.14033213  0.43769149  0.81502725    -0.13100
Br746      Br  0.07055355  0.49867805  0.83928905    -0.05200
Br747      Br  0.07486188  0.35752583  0.92535975     0.00400
Br748      Br  0.18337726  0.53820295  0.84497244     0.00900
Br749      Br  0.11426862  0.40295598  0.79816941    -0.03500
Br750      Br  0.01680104  0.48559413  0.89982594     0.01000
Br751      Br  0.14066873  0.38005677  0.87977372    -0.02800
Br752      Br  0.13999451  0.49440175  0.89865273    -0.03700
Br753      Br  0.18304985  0.42680494  0.76004172     0.00300
C754        C  0.91568685  0.48817719  0.41964102     0.01700
C755        C  0.88104497  0.48768445  0.42593993     0.04500
C756        C  0.85833883  0.48392271  0.40059820    -0.11500
C757        C  0.86940276  0.48014280  0.36832449     0.23800
C758        C  0.90353972  0.48132186  0.36148204    -0.12100
C759        C  0.92646223  0.48643297  0.38656473     0.05200
C760        C  0.84468471  0.47496465  0.34202759     0.27600
C761        C  0.82700605  0.44543389  0.34178320    -0.12800
C762        C  0.79814220  0.44312026  0.32330607     0.05700
C763        C  0.78960311  0.46839372  0.30023961    -0.08800
C764        C  0.80882543  0.49722775  0.29876484     0.06600
C765        C  0.83569868  0.50076331  0.32001730    -0.13100
Br766      Br  0.91887595  0.47379124  0.31769500    -0.05200
Br767      Br  0.86323076  0.49292814  0.46910662     0.00400
Br768      Br  0.76894156  0.40660889  0.33296678     0.00900
Br769      Br  0.85913589  0.54170707  0.32030508    -0.03500
Br770      Br  0.97234592  0.49021041  0.37419918     0.01000
Br771      Br  0.81144893  0.48325848  0.41030448    -0.02800
Br772      Br  0.84246482  0.40800099  0.36698267    -0.03700
Br773      Br  0.79555021  0.53411509  0.27146917     0.00300
C774        C  0.77845749  0.46446587  0.22382857     0.01700
C775        C  0.79948989  0.43650204  0.22386619     0.04500
C776        C  0.82284198  0.43241511  0.19867987    -0.11500
C777        C  0.82177229  0.45294249  0.17043304     0.23800
C778        C  0.79923905  0.47946002  0.16912880    -0.12100
C779        C  0.77986508  0.48680340  0.19664785     0.05200
C780        C  0.84435900  0.44689571  0.14224908     0.27600
C781        C  0.87013166  0.46899507  0.13451933    -0.12800
C782        C  0.89056627  0.46429838  0.10710090     0.05700
C783        C  0.88700732  0.43628237  0.08843818    -0.08800
C784        C  0.86146368  0.41397979  0.09628556     0.06600
C785        C  0.83981459  0.41956289  0.12270674    -0.13100
Br786      Br  0.79351870  0.50468224  0.12892769    -0.05200
Br787      Br  0.79279553  0.40026843  0.25429722     0.00400
Br788      Br  0.92227157  0.49726554  0.09401960     0.00900
Br789      Br  0.80363084  0.38998797  0.13177274    -0.03500
Br790      Br  0.75678656  0.52825032  0.19681619     0.01000
Br791      Br  0.85593348  0.39818252  0.20271829    -0.02800
Br792      Br  0.87789650  0.50545873  0.16196666    -0.03700
Br793      Br  0.85623887  0.37577319  0.07071985     0.00300
C794        C  0.05817971  0.48233792  0.39410866     0.01700
C795        C  0.06836181  0.45669619  0.37392182     0.04500
C796        C  0.08526637  0.46390701  0.34451262    -0.11500
C797        C  0.09482835  0.49627250  0.33639908     0.23800
C798        C  0.08451761  0.52198356  0.35617857    -0.12100
C799        C  0.06498855  0.51520405  0.38419046     0.05200
C800        C  0.11923640  0.50219396  0.30959945     0.27600
C801        C  0.15248208  0.49381144  0.31504647    -0.12800
C802        C  0.17583264  0.49723591  0.28966503     0.05700
C803        C  0.16661755  0.51107514  0.25883042    -0.08800
C804        C  0.13332225  0.52042356  0.25383438     0.06600
C805        C  0.10952321  0.51486197  0.27881001    -0.13100
Br806      Br  0.09834363  0.56628846  0.34559907    -0.05200
Br807      Br  0.06215261  0.41122427  0.38735742     0.00400
Br808      Br  0.22040465  0.48159596  0.29751449     0.00900
Br809      Br  0.06356045  0.52469673  0.27117352    -0.03500
Br810      Br  0.04617927  0.55125039  0.40744551     0.01000
Br811      Br  0.09669388  0.42925978  0.31559615    -0.02800
Br812      Br  0.16606970  0.47796375  0.35783649    -0.03700
Br813      Br  0.12043668  0.54362340  0.21440468     0.00300
C814        C  0.05318106  0.42683045  0.08131726     0.01700
C815        C  0.08154086  0.40708627  0.08657311     0.04500
C816        C  0.10591457  0.41681566  0.10836880    -0.11500
C817        C  0.10125386  0.44549649  0.12609394     0.23800
C818        C  0.07154810  0.46347528  0.12291922    -0.12100
C819        C  0.04825458  0.45498976  0.09978733     0.05200
C820        C  0.12847932  0.45928301  0.14529033     0.27600
C821        C  0.13613559  0.44645978  0.17655562    -0.12800
C822        C  0.16076740  0.46124875  0.19502134     0.05700
C823        C  0.17513905  0.49144398  0.18400722    -0.08800
C824        C  0.16536395  0.50506062  0.15339237     0.06600
C825        C  0.14436863  0.48783562  0.13327307    -0.13100
Br826      Br  0.06335578  0.50070529  0.14962674    -0.05200
Br827      Br  0.08720272  0.36715188  0.06336957     0.00400
Br828      Br  0.17523049  0.43845025  0.23414792     0.00900
Br829      Br  0.13601594  0.50427257  0.08937352    -0.03500
Br830      Br  0.01111618  0.48394060  0.09165750     0.01000
Br831      Br  0.14612822  0.39159659  0.11298714    -0.02800
Br832      Br  0.11156599  0.40955406  0.19454964    -0.03700
Br833      Br  0.17506904  0.54975299  0.14082937     0.00300
C834        C  0.50673344  0.29399273  0.21789786     0.01700
C835        C  0.52707270  0.32206219  0.21527956     0.04500
C836        C  0.52483123  0.34359765  0.18806372    -0.11500
C837        C  0.50502979  0.33574344  0.16173319     0.23800
C838        C  0.48776507  0.30594019  0.16255565    -0.12100
C839        C  0.48682400  0.28617798  0.19134251     0.05200
C840        C  0.49989934  0.36027854  0.13477814     0.27600
C841        C  0.46962148  0.37746523  0.13256599    -0.12800
C842        C  0.46463460  0.40075590  0.10714411     0.05700
C843        C  0.49131469  0.41052656  0.08687374    -0.08800
C844        C  0.52116466  0.39237164  0.08807321     0.06600
C845        C  0.52518004  0.36686338  0.11166634    -0.13100
Br846      Br  0.46420817  0.29322575  0.12458219    -0.05200
Br847      Br  0.55798778  0.33183144  0.24910862     0.00400
Br848      Br  0.42016376  0.41369422  0.09621545     0.00900
Br849      Br  0.56525982  0.34098683  0.11250842    -0.03500
Br850      Br  0.45437783  0.25213165  0.19533639     0.01000
Br851      Br  0.54676954  0.38519580  0.18816565    -0.02800
Br852      Br  0.43515201  0.36995799  0.16480939    -0.03700
Br853      Br  0.55647883  0.40192519  0.05717794     0.00300
C854        C  0.50282059  0.58972302  0.07904103     0.01700
C855        C  0.47650222  0.59851204  0.09999471     0.04500
C856        C  0.47916454  0.62549027  0.12011443    -0.11500
C857        C  0.50736993  0.64549644  0.11823264     0.23800
C858        C  0.53188353  0.63941177  0.09449118    -0.12100
C859        C  0.52969900  0.61166081  0.07492835     0.05200
C860        C  0.51148661  0.67131511  0.14275937     0.27600
C861        C  0.49077850  0.69919025  0.14216444    -0.12800
C862        C  0.48529514  0.71656881  0.17082021     0.05700
C863        C  0.50532148  0.71039546  0.19845840    -0.08800
C864        C  0.53029254  0.68588898  0.19651350     0.06600
C865        C  0.53168305  0.66506540  0.16994039    -0.13100
Br866      Br  0.56887706  0.66874461  0.08969197    -0.05200
Br867      Br  0.43527752  0.57553268  0.09948788     0.00400
Br868      Br  0.44575196  0.74239938  0.17304340     0.00900
Br869      Br  0.55861284  0.62582645  0.17247047    -0.03500
Br870      Br  0.56413822  0.60391432  0.04331180     0.01000
Br871      Br  0.44458710  0.63393174  0.15167452    -0.02800
Br872      Br  0.46764719  0.71140417  0.10272243    -0.03700
Br873      Br  0.56168925  0.67906668  0.23120977     0.00300
C874        C  0.52821190  0.73691129  0.84541961     0.01700
C875        C  0.50431920  0.71177176  0.84550461     0.04500
C876        C  0.50173314  0.68930135  0.87200629    -0.11500
C877        C  0.52276006  0.69180321  0.89872227     0.23800
C878        C  0.54457573  0.71833085  0.90009363    -0.12100
C879        C  0.54798425  0.74042609  0.87310863     0.05200
C880        C  0.52608390  0.66308953  0.92151763     0.27600
C881        C  0.50252403  0.65729359  0.94642790    -0.12800
C882        C  0.50033856  0.62600564  0.96183389     0.05700
C883        C  0.52252134  0.60083277  0.95298539    -0.08800
C884        C  0.54849762  0.60796335  0.93064880     0.06600
C885        C  0.54984319  0.63886155  0.91451191    -0.13100
Br886      Br  0.57171228  0.72227809  0.93792433    -0.05200
Br887      Br  0.47637724  0.70628178  0.80823763     0.00400
Br888      Br  0.46665556  0.61772670  0.99471265     0.00900
Br889      Br  0.58242079  0.64706974  0.88045485    -0.03500
Br890      Br  0.58320488  0.77172626  0.87255821     0.01000
Br891      Br  0.47165123  0.65288136  0.87025330    -0.02800
Br892      Br  0.47229220  0.69184601  0.95790284    -0.03700
Br893      Br  0.58065633  0.57486625  0.91949706     0.00300
C894        C  0.69861671  0.48523579  0.79578634     0.01700
C895        C  0.69857221  0.45526693  0.81425887     0.04500
C896        C  0.68000049  0.45207222  0.84351298    -0.11500
C897        C  0.66064323  0.47848455  0.85421387     0.23800
C898        C  0.66060223  0.50836505  0.83592795    -0.12100
C899        C  0.67844658  0.51145826  0.80638213     0.05200
C900        C  0.63507034  0.47336307  0.88032477     0.27600
C901        C  0.60244048  0.46797745  0.87098446    -0.12800
C902        C  0.57638058  0.47029031  0.89368597     0.05700
C903        C  0.58266388  0.47589525  0.92699108    -0.08800
C904        C  0.61616178  0.47607647  0.93700405     0.06600
C905        C  0.64209109  0.47663386  0.91348583    -0.13100
Br906      Br  0.63493614  0.54493560  0.85120314    -0.05200
Br907      Br  0.71955578  0.41694532  0.79733233     0.00400
Br908      Br  0.53237148  0.46621848  0.87731740     0.00900
Br909      Br  0.68704312  0.48407985  0.92609951    -0.03500
Br910      Br  0.67456561  0.55205798  0.78078615     0.01000
Br911      Br  0.67955379  0.41097490  0.86824820    -0.02800
Br912      Br  0.59344168  0.45945478  0.82594997    -0.03700
Br913      Br  0.62749694  0.47554400  0.98234829     0.00300
C914        C  0.48838234  0.40796384  0.91597679     0.01700
C915        C  0.46385795  0.40341874  0.89232879     0.04500
C916        C  0.46567815  0.37652762  0.87183267    -0.11500
C917        C  0.49192548  0.35379933  0.87450960     0.23800
C918        C  0.51639131  0.35801382  0.89798737    -0.12100
C919        C  0.51476794  0.38498216  0.91854344     0.05200
C920        C  0.49355881  0.32585664  0.85208099     0.27600
C921        C  0.47494117  0.29731241  0.85893101    -0.12800
C922        C  0.47185381  0.27331448  0.83529720     0.05700
C923        C  0.48861764  0.27694031  0.80508234    -0.08800
C924        C  0.50820034  0.30523448  0.79876956     0.06600
C925        C  0.51043022  0.32955850  0.82205068    -0.13100
Br926      Br  0.55175659  0.32628253  0.90225869    -0.05200
Br927      Br  0.42629990  0.43243968  0.88866409     0.00400
Br928      Br  0.44103712  0.23812409  0.84278778     0.00900
Br929      Br  0.53475206  0.36925703  0.81199924    -0.03500
Br930      Br  0.54967236  0.39086333  0.94930107     0.01000
Br931      Br  0.43153679  0.37002560  0.84034287    -0.02800
Br932      Br  0.45168285  0.29251207  0.90001584    -0.03700
Br933      Br  0.53171717  0.31138312  0.75773514     0.00300
C934        C  0.25501862  0.50344638  0.82409452     0.01700
C935        C  0.26698162  0.47180725  0.83311093     0.04500
C936        C  0.29200241  0.46798562  0.85648636    -0.11500
C937        C  0.30348424  0.49543650  0.87263840     0.23800
C938        C  0.28944575  0.52652199  0.86590776    -0.12100
C939        C  0.26698414  0.53094206  0.84041779     0.05200
C940        C  0.33279591  0.49272422  0.89387581     0.27600
C941        C  0.33056053  0.47744923  0.92506201    -0.12800
C942        C  0.35867055  0.47484436  0.94475965     0.05700
C943        C  0.38806576  0.49123481  0.93506105    -0.08800
C944        C  0.38990228  0.50737654  0.90396074     0.06600
C945        C  0.36292537  0.50648879  0.88290114    -0.13100
Br946      Br  0.30283481  0.56355152  0.89046789    -0.05200
Br947      Br  0.25286882  0.43398467  0.81064845     0.00400
Br948      Br  0.35623660  0.44881314  0.98493517     0.00900
Br949      Br  0.36751699  0.52318663  0.83840759    -0.03500
Br950      Br  0.25586433  0.57548320  0.82626489     0.01000
Br951      Br  0.31285698  0.42568414  0.86411716    -0.02800
Br952      Br  0.28865774  0.46101716  0.94112105    -0.03700
Br953      Br  0.42999757  0.52858977  0.88840468     0.00300
C954        C  0.24748996  0.51747398  0.16295975     0.01700
C955        C  0.25906827  0.48638467  0.15362377     0.04500
C956        C  0.28385094  0.48389287  0.12926055    -0.11500
C957        C  0.29860579  0.51232975  0.11514459     0.23800
C958        C  0.28625847  0.54333361  0.12334108    -0.12100
C959        C  0.26075790  0.54597302  0.14677948     0.05200
C960        C  0.33023983  0.50981629  0.09605227     0.27600
C961        C  0.35992086  0.50305235  0.11266385    -0.12800
C962        C  0.38998538  0.50016403  0.09531469     0.05700
C963        C  0.39104502  0.50513201  0.06107684    -0.08800
C964        C  0.36202025  0.51587675  0.04512506     0.06600
C965        C  0.33143789  0.51629429  0.06210498    -0.13100
Br966      Br  0.30665366  0.58252180  0.10478421    -0.05200
Br967      Br  0.24553534  0.44726765  0.17759858     0.00400
Br968      Br  0.42989637  0.49204867  0.11946053     0.00900
Br969      Br  0.29112116  0.52508453  0.03880373    -0.03500
Br970      Br  0.24640677  0.58947766  0.15841277     0.01000
Br971      Br  0.29991710  0.44140271  0.11699976    -0.02800
Br972      Br  0.35944793  0.49833690  0.15961203    -0.03700
Br973      Br  0.36468297  0.53443032  0.00156451     0.00300
C974        C  0.59419532  0.50000832  0.07776181     0.01700
C975        C  0.58748718  0.48090944  0.10684063     0.04500
C976        C  0.61254922  0.47407161  0.12955857    -0.11500
C977        C  0.64297368  0.49004346  0.12695385     0.23800
C978        C  0.64962179  0.51070477  0.09963351    -0.12100
C979        C  0.62617346  0.51468014  0.07445292     0.05200
C980        C  0.66625346  0.48686543  0.15482752     0.27600
C981        C  0.66266411  0.50801907  0.18090943    -0.12800
C982        C  0.68019045  0.50190453  0.20993848     0.05700
C983        C  0.70166936  0.47426076  0.21333479    -0.08800
C984        C  0.70459169  0.45278356  0.18722457     0.06600
C985        C  0.68789541  0.45974983  0.15777979    -0.13100
Br986      Br  0.69099227  0.53393197  0.09747739    -0.05200
Br987      Br  0.54359797  0.46732518  0.11984918     0.00400
Br988      Br  0.67461995  0.53230351  0.24461315     0.00900
Br989      Br  0.69328100  0.43137087  0.12162971    -0.03500
Br990      Br  0.63928049  0.54140549  0.03671024     0.01000
Br991      Br  0.60543889  0.44282766  0.16524795    -0.02800
Br992      Br  0.63281032  0.54512753  0.17691034    -0.03700
Br993      Br  0.72739867  0.41147978  0.19282163     0.00300
loop_ 
_geom_bond_atom_site_label_1 
_geom_bond_atom_site_label_2 
_geom_bond_distance 
_geom_bond_site_symmetry_2 
_ccdc_geom_bond_type 
O1            C9   1.268       .  A
O1          Co21   1.903       .  S
O2           C10   1.260       .  A
O2          Co22   1.966       .  S
O3           C11   1.261       .  A
O3          Co23   1.989   1_556  S
O4           C12   1.281       .  A
O4          Co24   2.050       .  S
O5           C11   1.260       .  A
O5          Co22   1.980       .  S
O6           C12   1.266       .  A
O6          Co21   1.983       .  S
O7           C10   1.267       .  A
O7          Co24   2.010   1_556  S
O8            C9   1.298       .  A
O8          Co23   2.132       .  S
C9          C854   1.504       .  S
C10         C943   1.483       .  S
C11         C883   1.476       .  S
C12         C963   1.496       .  S
O13          C26   1.267       .  A
O13         Co21   2.024       .  S
O14          C27   1.278       .  A
O14         Co22   2.025       .  S
O15          C28   1.263       .  A
O15         Co23   1.901       .  S
O16          C29   1.259       .  A
O16         Co24   1.959   1_556  S
O17          C29   1.277       .  A
O17         Co22   2.045       .  S
O18          C28   1.298       .  A
O18         Co21   2.120       .  S
O19          C26   1.247       .  A
O19         Co24   1.945       .  S
O20          C27   1.276       .  A
O20         Co23   1.999   1_556  S
Co21         O25   2.021   1_554  S
Co22         O25   2.027       .  S
Co23         O25   2.017   1_554  S
Co24         O25   2.047   1_554  S
C26         C843   1.473       .  S
C27         C903   1.510       .  S
C28         C974   1.518       .  S
C29         C914   1.498       .  S
N30          C34   1.374       .  A
N30          C31   1.376       .  A
N30         C823   1.460       .  S
C31         C954   1.502       .  S
C31          C32   1.381       .  A
C32          C33   1.361       .  A
C32          H35   1.082       .  S
C33          C34   1.381       .  A
C33          H36   1.083       .  S
C34         C803   1.495       .  S
N37          C41   1.371       .  A
N37          C38   1.372       .  A
N37         C774   1.454       .  S
C38         C763   1.502       .  S
C38          C39   1.382       .  A
C39          C40   1.372       .  A
C39          H42   1.082       .  S
C40          C41   1.383       .  A
C40          H43   1.082       .  S
C41         C983   1.504       .  S
N44          C48   1.370       .  A
N44          C45   1.372       .  A
N44         C743   1.462       .  S
C45         C934   1.488       .  S
C45          C46   1.381       .  A
C46          C47   1.360       .  A
C46          H49   1.082       .  S
C47          C48   1.381       .  A
C47          H50   1.083       .  S
C48         C714   1.483       .  S
N51          C55   1.367       .  A
N51          C52   1.367       .  A
N51         C703   1.446       .  S
C52         C674   1.505       .  S
C52          C53   1.384       .  A
C53          C54   1.375       .  A
C53          H56   1.082       .  S
C54          C55   1.382       .  A
C54          H57   1.082       .  S
C55         C894   1.502       .  S
N58          C63   1.355       .  A
N58          C62   1.350       .  A
N58          H90   1.039       .  S
N59          C66   1.347   1_554  A
N59          C67   1.352       .  A
N60          C65   1.350       .  A
N60          C64   1.354       .  A
N60          H91   1.040       .  S
N61          C68   1.354       .  A
N61          C69   1.352   1_556  A
C62          C70   1.389       .  A
C62          C78   1.417       .  A
C63          C79   1.415   1_655  A
C63          C71   1.385       .  A
C64          C72   1.386       .  A
C64          C81   1.415       .  A
C65          C80   1.414   1_655  A
C65          C73   1.387       .  A
C66          C78   1.414       .  A
C66          C74   1.389       .  A
C67          C81   1.411       .  A
C67          C75   1.384       .  A
C68          C76   1.385       .  A
C68          C79   1.415       .  A
C69          C77   1.387       .  A
C69          C80   1.417       .  A
C70          C71   1.380       .  A
C70          H82   1.083       .  S
C71          H83   1.082       .  S
C72          C73   1.380       .  A
C72          H84   1.082       .  S
C73          H85   1.082   1_655  S
C74          C75   1.376   1_556  A
C74          H86   1.082       .  S
C75          H87   1.082       .  S
C76          C77   1.376   1_556  A
C76          H88   1.082       .  S
C77          H89   1.082       .  S
C78         C694   1.483       .  S
C79         C734   1.501       .  S
C80         C814   1.494       .  S
C81         C783   1.497       .  S
O92         C100   1.297       .  A
O92        Co112   2.114       .  S
O93         C101   1.267       .  A
O93        Co113   2.004       .  S
O94         C102   1.270       .  A
O94        Co114   1.996   1_655  S
O95         C103   1.261       .  A
O95        Co115   1.991   1_455  S
O96         C102   1.278       .  A
O96        Co113   2.037       .  S
O97         C103   1.262       .  A
O97        Co112   2.004       .  S
O98         C101   1.260       .  A
O98        Co115   1.953       .  S
O99         C100   1.264       .  A
O99        Co114   1.879       .  S
C100        C794   1.484       .  S
C101        C614   1.495       .  S
C102        C754   1.520       .  S
C103        C654   1.493       .  S
O104        C117   1.269       .  A
O104       Co112   1.968       .  S
O105        C118   1.257       .  A
O105       Co113   1.968       .  S
O106        C119   1.298       .  A
O106       Co114   2.115       .  S
O107        C120   1.273       .  A
O107       Co115   2.029       .  S
O108        C120   1.264       .  A
O108       Co113   1.972       .  S
O109        C119   1.264       .  A
O109       Co112   1.891       .  S
O110        C117   1.276       .  A
O110       Co115   2.016   1_455  S
O111        C118   1.263       .  A
O111       Co114   2.004   1_655  S
Co112       O116   2.009   1_455  S
Co113       O116   2.041       .  S
Co114       O116   2.009   1_455  S
Co115       O116   2.035       .  S
C117        C723   1.492       .  S
C118        C594   1.496       .  S
C119        C634   1.491       .  S
C120        C683   1.508       .  S
N121        C125   1.368       .  A
N121        C122   1.368       .  A
N121        C574   1.443       .  S
C122        C863   1.506       .  S
C122        C123   1.385       .  A
C123        C124   1.372       .  A
C123        H126   1.082       .  S
C124        C125   1.381       .  A
C124        H127   1.082       .  S
C125        C563   1.500       .  S
N128        C132   1.368       .  A
N128        C129   1.366       .  A
N128        C534   1.456       .  S
C129        C834   1.486       .  S
C129        C130   1.382       .  A
C130        C131   1.364       .  A
C130        H133   1.082       .  S
C131        C132   1.380       .  A
C131        H134   1.082       .  S
C132        C514   1.484       .  S
N135        C139   1.374       .  A
N135        C136   1.376       .  A
N135        C503   1.460       .  S
C136        C483   1.500       .  S
C136        C137   1.381       .  A
C137        C138   1.365       .  A
C137        H140   1.082       .  S
C138        C139   1.380       .  A
C138        H141   1.082       .  S
C139        C923   1.497       .  S
N142        C146   1.365       .  A
N142        C143   1.369       .  A
N142        C454   1.454       .  S
C143        C434   1.488       .  S
C143        C144   1.381       .  A
C144        C145   1.365       .  A
C144        H147   1.082       .  S
C145        C146   1.381       .  A
C145        H148   1.082       .  S
C146        C874   1.484       .  S
N149        C154   1.353       .  A
N149        C153   1.355       .  A
N149        H181   1.020       .  S
N150        C157   1.350       .  A
N150        C158   1.349   1_545  A
N151        C156   1.354       .  A
N151        C155   1.354       .  A
N151        H182   1.036       .  S
N152        C159   1.350       .  A
N152        C160   1.352   1_545  A
C153        C161   1.386       .  A
C153        C169   1.420   1_554  A
C154        C170   1.421       .  A
C154        C162   1.388       .  A
C155        C163   1.385       .  A
C155        C172   1.414   1_554  A
C156        C171   1.419       .  A
C156        C164   1.389       .  A
C157        C169   1.417       .  A
C157        C165   1.387       .  A
C158        C172   1.413       .  A
C158        C166   1.386       .  A
C159        C167   1.388       .  A
C159        C170   1.421       .  A
C160        C168   1.385       .  A
C160        C171   1.417       .  A
C161        C162   1.373       .  A
C161        H173   1.082   1_554  S
C162        H174   1.082       .  S
C163        C164   1.375       .  A
C163        H175   1.082       .  S
C164        H176   1.083       .  S
C165        C166   1.370   1_545  A
C165        H177   1.081       .  S
C166        H178   1.082       .  S
C167        C168   1.374   1_545  A
C167        H179   1.081       .  S
C168        H180   1.082       .  S
C169        C494   1.492       .  S
C170        C543   1.492       .  S
C171        C583   1.500       .  S
C172        C463   1.489       .  S
N183        C187   1.369       .  A
N183        C184   1.370       .  A
N183        C414   1.452       .  S
C184        C663   1.498       .  S
C184        C185   1.382       .  A
C185        C186   1.369       .  A
C185        H188   1.082       .  S
C186        C187   1.382       .  A
C186        H189   1.082       .  S
C187        C403   1.498       .  S
N190        C194   1.366       .  A
N190        C191   1.369       .  A
N190        C374   1.452       .  S
C191        C363   1.499       .  S
C191        C192   1.382       .  A
C192        C193   1.367       .  A
C192        H195   1.082       .  S
C193        C194   1.381       .  A
C193        H196   1.082       .  S
C194        C603   1.488       .  S
N197        C201   1.368       .  A
N197        C198   1.366       .  A
N197        C334   1.452       .  S
C198        C643   1.488       .  S
C198        C199   1.383       .  A
C199        C200   1.369       .  A
C199        H202   1.082       .  S
C200        C201   1.380       .  A
C200        H203   1.082       .  S
C201        C314   1.491       .  S
N204        C208   1.369       .  A
N204        C205   1.370       .  A
N204        C303   1.460       .  S
C205        C283   1.490       .  S
C205        C206   1.382       .  A
C206        C207   1.363       .  A
C206        H209   1.083       .  S
C207        C208   1.380       .  A
C207        H210   1.082       .  S
C208        C623   1.486       .  S
N211        C216   1.353       .  A
N211        C215   1.355       .  A
N211        H243   1.037       .  S
N212        C219   1.345       .  A
N212        C220   1.347   1_655  A
N213        C218   1.351       .  A
N213        C217   1.353       .  A
N213        H244   1.040       .  S
N214        C221   1.352       .  A
N214        C222   1.354   1_655  A
C215        C223   1.385       .  A
C215        C231   1.415   1_565  A
C216        C232   1.421       .  A
C216        C224   1.390       .  A
C217        C225   1.387       .  A
C217        C234   1.416   1_565  A
C218        C233   1.415       .  A
C218        C226   1.387       .  A
C219        C231   1.405       .  A
C219        C227   1.386       .  A
C220        C234   1.407       .  A
C220        C228   1.386       .  A
C221        C229   1.388       .  A
C221        C232   1.419       .  A
C222        C230   1.385       .  A
C222        C233   1.417       .  A
C223        C224   1.376       .  A
C223        H235   1.082   1_565  S
C224        H236   1.081       .  S
C225        C226   1.380       .  A
C225        H237   1.082   1_565  S
C226        H238   1.082       .  S
C227        C228   1.372   1_655  A
C227        H239   1.082       .  S
C228        H240   1.082       .  S
C229        C230   1.372   1_655  A
C229        H241   1.081       .  S
C230        H242   1.082       .  S
C231        C383   1.484       .  S
C232        C294   1.495       .  S
C233        C423   1.499       .  S
C234        C343   1.489       .  S
O245        C253   1.268       .  A
O245       Co265   2.019       .  S
O246        C254   1.290       .  A
O246       Co266   2.099       .  S
O247        C255   1.259       .  A
O247       Co267   1.992   1_545  S
O248        C256   1.266       .  A
O248       Co268   1.976       .  S
O249        C255   1.260       .  A
O249       Co266   1.982       .  S
O250        C256   1.283       .  A
O250       Co265   2.049       .  S
O251        C254   1.265       .  A
O251       Co268   1.917   1_545  S
O252        C253   1.263       .  A
O252       Co267   1.966       .  S
C253        C554   1.485       .  S
C254        C354   1.480       .  S
C255        C523   1.489       .  S
C256        C274   1.489       .  S
O257        C270   1.251       .  A
O257       Co265   1.974       .  S
O258        C271   1.270       .  A
O258       Co266   1.987       .  S
O259        C272   1.275       .  A
O259       Co267   2.031       .  S
O260        C273   1.302       .  A
O260       Co268   2.127   1_545  S
O261        C273   1.261       .  A
O261       Co266   1.884       .  S
O262        C272   1.261       .  A
O262       Co265   1.965       .  S
O263        C270   1.263       .  A
O263       Co268   2.022       .  S
O264        C271   1.277       .  A
O264       Co267   2.033   1_545  S
Co265       O269   2.027       .  S
Co266       O269   1.994   1_545  S
Co267       O269   2.049       .  S
Co268       O269   2.038       .  S
C270        C443   1.486       .  S
C271        C323   1.489       .  S
C272        C394   1.494       .  S
C273        C474   1.504       .  S
C274        C275   1.411       .  A
C274        C279   1.412       .  A
C275        C276   1.410       .  A
C275       Br287   1.927       .  S
C276        C277   1.412       .  A
C276       Br291   1.933       .  S
C277        C280   1.494       .  S
C277        C278   1.411       .  A
C278        C279   1.411       .  A
C278       Br286   1.930       .  S
C279       Br290   1.922       .  S
C280        C281   1.415       .  A
C280        C285   1.409       .  A
C281        C282   1.415       .  A
C281       Br292   1.927       .  S
C282        C283   1.411       .  A
C282       Br288   1.927       .  S
C283        C284   1.418       .  A
C284        C285   1.401       .  A
C284       Br293   1.938       .  S
C285       Br289   1.935       .  S
C294        C295   1.411       .  A
C294        C299   1.413       .  A
C295        C296   1.406       .  A
C295       Br307   1.930       .  S
C296        C297   1.409       .  A
C296       Br311   1.929       .  S
C297        C300   1.491       .  S
C297        C298   1.412       .  A
C298        C299   1.408       .  A
C298       Br306   1.931       .  S
C299       Br310   1.932       .  S
C300        C301   1.405       .  A
C300        C305   1.408       .  A
C301        C302   1.408       .  A
C301       Br312   1.935       .  S
C302        C303   1.423       .  A
C302       Br308   1.920       .  S
C303        C304   1.420       .  A
C304        C305   1.410       .  A
C304       Br313   1.926       .  S
C305       Br309   1.932       .  S
C314        C315   1.416       .  A
C314        C319   1.415       .  A
C315        C316   1.405       .  A
C315       Br327   1.931       .  S
C316        C317   1.408       .  A
C316       Br331   1.932       .  S
C317        C320   1.493       .  S
C317        C318   1.410       .  A
C318        C319   1.413       .  A
C318       Br326   1.931       .  S
C319       Br330   1.923       .  S
C320        C321   1.411       .  A
C320        C325   1.411       .  A
C321        C322   1.414       .  A
C321       Br332   1.927       .  S
C322        C323   1.411       .  A
C322       Br328   1.924   1_545  S
C323        C324   1.415       .  A
C324        C325   1.405       .  A
C324       Br333   1.923       .  S
C325       Br329   1.939       .  S
C334        C335   1.416       .  A
C334        C339   1.418       .  A
C335        C336   1.403       .  A
C335       Br347   1.918       .  S
C336        C337   1.404       .  A
C336       Br351   1.935       .  S
C337        C340   1.483       .  S
C337        C338   1.407       .  A
C338        C339   1.410       .  A
C338       Br346   1.932       .  S
C339       Br350   1.919       .  S
C340        C341   1.409       .  A
C340        C345   1.409       .  A
C341        C342   1.406       .  A
C341       Br352   1.932       .  S
C342        C343   1.414       .  A
C342       Br348   1.930       .  S
C343        C344   1.409       .  A
C344        C345   1.405       .  A
C344       Br353   1.929       .  S
C345       Br349   1.930       .  S
C354        C355   1.410       .  A
C354        C359   1.411       .  A
C355        C356   1.402       .  A
C355       Br367   1.917       .  S
C356        C357   1.407       .  A
C356       Br371   1.936       .  S
C357        C360   1.484       .  S
C357        C358   1.410       .  A
C358        C359   1.412       .  A
C358       Br366   1.928       .  S
C359       Br370   1.926       .  S
C360        C361   1.406       .  A
C360        C365   1.406       .  A
C361        C362   1.408       .  A
C361       Br372   1.935       .  S
C362        C363   1.424       .  A
C362       Br368   1.936       .  S
C363        C364   1.416       .  A
C364        C365   1.407       .  A
C364       Br373   1.921       .  S
C365       Br369   1.932       .  S
C374        C375   1.420       .  A
C374        C379   1.414       .  A
C375        C376   1.407       .  A
C375       Br387   1.925       .  S
C376        C377   1.407       .  A
C376       Br391   1.933       .  S
C377        C380   1.486       .  S
C377        C378   1.409       .  A
C378        C379   1.404       .  A
C378       Br386   1.932       .  S
C379       Br390   1.927       .  S
C380        C381   1.409       .  A
C380        C385   1.415       .  A
C381        C382   1.402       .  A
C381       Br392   1.932       .  S
C382        C383   1.409       .  A
C382       Br388   1.930       .  S
C383        C384   1.406       .  A
C384        C385   1.408       .  A
C384       Br393   1.928       .  S
C385       Br389   1.930       .  S
C394        C395   1.422       .  A
C394        C399   1.418       .  A
C395        C396   1.407       .  A
C395       Br407   1.938       .  S
C396        C397   1.409       .  A
C396       Br411   1.937       .  S
C397        C400   1.491       .  S
C397        C398   1.409       .  A
C398        C399   1.412       .  A
C398       Br406   1.928       .  S
C399       Br410   1.932       .  S
C400        C401   1.407       .  A
C400        C405   1.408       .  A
C401        C402   1.407       .  A
C401       Br412   1.930       .  S
C402        C403   1.421       .  A
C402       Br408   1.937       .  S
C403        C404   1.415       .  A
C404        C405   1.412       .  A
C404       Br413   1.921       .  S
C405       Br409   1.930       .  S
C414        C415   1.418       .  A
C414        C419   1.418       .  A
C415        C416   1.407       .  A
C415       Br427   1.925       .  S
C416        C417   1.406       .  A
C416       Br431   1.931       .  S
C417        C420   1.486       .  S
C417        C418   1.407       .  A
C418        C419   1.408       .  A
C418       Br426   1.932       .  S
C419       Br430   1.925       .  S
C420        C421   1.408       .  A
C420        C425   1.408       .  A
C421        C422   1.409       .  A
C421       Br432   1.929       .  S
C422        C423   1.416       .  A
C422       Br428   1.931       .  S
C423        C424   1.415       .  A
C424        C425   1.406       .  A
C424       Br433   1.932       .  S
C425       Br429   1.933       .  S
C434        C435   1.413       .  A
C434        C439   1.419       .  A
C435        C436   1.409       .  A
C435       Br447   1.923       .  S
C436        C437   1.409       .  A
C436       Br451   1.932       .  S
C437        C440   1.487       .  S
C437        C438   1.406       .  A
C438        C439   1.405       .  A
C438       Br446   1.932       .  S
C439       Br450   1.937       .  S
C440        C441   1.409       .  A
C440        C445   1.407       .  A
C441        C442   1.407       .  A
C441       Br452   1.935       .  S
C442        C443   1.415       .  A
C442       Br448   1.925       .  S
C443        C444   1.410       .  A
C444        C445   1.409       .  A
C444       Br453   1.920       .  S
C445       Br449   1.929       .  S
C454        C455   1.417       .  A
C454        C459   1.419       .  A
C455        C456   1.404       .  A
C455       Br467   1.918       .  S
C456        C457   1.405       .  A
C456       Br471   1.934       .  S
C457        C460   1.485       .  S
C457        C458   1.406       .  A
C458        C459   1.409       .  A
C458       Br466   1.933       .  S
C459       Br470   1.921       .  S
C460        C461   1.412       .  A
C460        C465   1.410       .  A
C461        C462   1.405       .  A
C461       Br472   1.932       .  S
C462        C463   1.410       .  A
C462       Br468   1.931       .  S
C463        C464   1.410       .  A
C464        C465   1.406       .  A
C464       Br473   1.929       .  S
C465       Br469   1.930       .  S
C474        C475   1.425       .  A
C474        C479   1.419       .  A
C475        C476   1.410       .  A
C475       Br487   1.937       .  S
C476        C477   1.410       .  A
C476       Br491   1.936       .  S
C477        C480   1.500       .  S
C477        C478   1.409       .  A
C478        C479   1.412       .  A
C478       Br486   1.927       .  S
C479       Br490   1.932       .  S
C480        C481   1.413       .  A
C480        C485   1.409       .  A
C481        C482   1.415       .  A
C481       Br492   1.931       .  S
C482        C483   1.413       .  A
C482       Br488   1.924       .  S
C483        C484   1.422       .  A
C484        C485   1.409       .  A
C484       Br493   1.938       .  S
C485       Br489   1.934       .  S
C494        C495   1.411       .  A
C494        C499   1.411       .  A
C495        C496   1.409       .  A
C495       Br507   1.929       .  S
C496        C497   1.410       .  A
C496       Br511   1.928       .  S
C497        C500   1.486       .  S
C497        C498   1.411       .  A
C498        C499   1.404       .  A
C498       Br506   1.931       .  S
C499       Br510   1.933       .  S
C500        C501   1.405       .  A
C500        C505   1.403       .  A
C501        C502   1.410       .  A
C501       Br512   1.929       .  S
C502        C503   1.422       .  A
C502       Br508   1.921       .  S
C503        C504   1.420       .  A
C504        C505   1.404       .  A
C504       Br513   1.914       .  S
C505       Br509   1.935       .  S
C514        C515   1.411       .  A
C514        C519   1.420       .  A
C515        C516   1.407       .  A
C515       Br527   1.923       .  S
C516        C517   1.406       .  A
C516       Br531   1.930       .  S
C517        C520   1.478       .  S
C517        C518   1.406       .  A
C518        C519   1.403       .  A
C518       Br526   1.933       .  S
C519       Br530   1.939       .  S
C520        C521   1.405       .  A
C520        C525   1.404       .  A
C521        C522   1.408       .  A
C521       Br532   1.933       .  S
C522        C523   1.419       .  A
C522       Br528   1.931       .  S
C523        C524   1.420       .  A
C524        C525   1.404       .  A
C524       Br533   1.931       .  S
C525       Br529   1.933       .  S
C534        C535   1.419       .  A
C534        C539   1.418       .  A
C535        C536   1.407       .  A
C535       Br547   1.921       .  S
C536        C537   1.407       .  A
C536       Br551   1.934       .  S
C537        C540   1.487       .  S
C537        C538   1.406       .  A
C538        C539   1.407       .  A
C538       Br546   1.931       .  S
C539       Br550   1.923       .  S
C540        C541   1.411       .  A
C540        C545   1.411       .  A
C541        C542   1.407       .  A
C541       Br552   1.929       .  S
C542        C543   1.410       .  A
C542       Br548   1.930       .  S
C543        C544   1.413       .  A
C544        C545   1.405       .  A
C544       Br553   1.933       .  S
C545       Br549   1.931       .  S
C554        C555   1.415       .  A
C554        C559   1.412       .  A
C555        C556   1.407       .  A
C555       Br567   1.931       .  S
C556        C557   1.407       .  A
C556       Br571   1.931       .  S
C557        C560   1.490       .  S
C557        C558   1.412       .  A
C558        C559   1.411       .  A
C558       Br566   1.930       .  S
C559       Br570   1.929       .  S
C560        C561   1.407       .  A
C560        C565   1.405       .  A
C561        C562   1.409       .  A
C561       Br572   1.928       .  S
C562        C563   1.419       .  A
C562       Br568   1.934       .  S
C563        C564   1.417       .  A
C564        C565   1.409       .  A
C564       Br573   1.915       .  S
C565       Br569   1.932       .  S
C574        C575   1.407       .  A
C574        C579   1.412       .  A
C575        C576   1.405       .  A
C575       Br587   1.924       .  S
C576        C577   1.414       .  A
C576       Br591   1.930       .  S
C577        C580   1.495       .  S
C577        C578   1.412       .  A
C578        C579   1.406       .  A
C578       Br586   1.932       .  S
C579       Br590   1.925       .  S
C580        C581   1.417       .  A
C580        C585   1.412       .  A
C581        C582   1.412       .  A
C581       Br592   1.934       .  S
C582        C583   1.415       .  A
C582       Br588   1.931       .  S
C583        C584   1.412       .  A
C584        C585   1.401       .  A
C584       Br593   1.932       .  S
C585       Br589   1.934       .  S
C594        C595   1.425       .  A
C594        C599   1.424       .  A
C595        C596   1.410       .  A
C595       Br607   1.931       .  S
C596        C597   1.404       .  A
C596       Br611   1.931       .  S
C597        C600   1.484       .  S
C597        C598   1.401       .  A
C598        C599   1.403       .  A
C598       Br606   1.929       .  S
C599       Br610   1.933       .  S
C600        C601   1.411       .  A
C600        C605   1.407       .  A
C601        C602   1.409       .  A
C601       Br612   1.933       .  S
C602        C603   1.412       .  A
C602       Br608   1.925       .  S
C603        C604   1.419       .  A
C604        C605   1.403       .  A
C604       Br613   1.938       .  S
C605       Br609   1.934       .  S
C614        C615   1.431       .  A
C614        C619   1.427       .  A
C615        C616   1.405       .  A
C615       Br627   1.944       .  S
C616        C617   1.402       .  A
C616       Br631   1.936       .  S
C617        C620   1.474       .  S
C617        C618   1.401       .  A
C618        C619   1.403       .  A
C618       Br626   1.937       .  S
C619       Br630   1.939       .  S
C620        C621   1.405       .  A
C620        C625   1.406       .  A
C621        C622   1.402       .  A
C621       Br632   1.937       .  S
C622        C623   1.420       .  A
C622       Br628   1.937       .  S
C623        C624   1.412       .  A
C624        C625   1.405       .  A
C624       Br633   1.922       .  S
C625       Br629   1.932       .  S
C634        C635   1.417       .  A
C634        C639   1.415       .  A
C635        C636   1.406       .  A
C635       Br647   1.929       .  S
C636        C637   1.407       .  A
C636       Br651   1.934       .  S
C637        C640   1.483       .  S
C637        C638   1.404       .  A
C638        C639   1.409       .  A
C638       Br646   1.931       .  S
C639       Br650   1.915       .  S
C640        C641   1.408       .  A
C640        C645   1.405       .  A
C641        C642   1.410       .  A
C641       Br652   1.930       .  S
C642        C643   1.413       .  A
C642       Br648   1.920       .  S
C643        C644   1.418       .  A
C644        C645   1.404       .  A
C644       Br653   1.936       .  S
C645       Br649   1.932       .  S
C654        C655   1.417       .  A
C654        C659   1.418       .  A
C655        C656   1.409       .  A
C655       Br667   1.926       .  S
C656        C657   1.407       .  A
C656       Br671   1.931       .  S
C657        C660   1.489       .  S
C657        C658   1.407       .  A
C658        C659   1.411       .  A
C658       Br666   1.931       .  S
C659       Br670   1.933       .  S
C660        C661   1.407       .  A
C660        C665   1.407       .  A
C661        C662   1.408       .  A
C661       Br672   1.934       .  S
C662        C663   1.421       .  A
C662       Br668   1.937       .  S
C663        C664   1.414       .  A
C664        C665   1.411       .  A
C664       Br673   1.921       .  S
C665       Br669   1.929       .  S
C674        C675   1.416       .  A
C674        C679   1.421       .  A
C675        C676   1.411       .  A
C675       Br687   1.918       .  S
C676        C677   1.406       .  A
C676       Br691   1.929       .  S
C677        C680   1.495       .  S
C677        C678   1.409       .  A
C678        C679   1.411       .  A
C678       Br686   1.933       .  S
C679       Br690   1.936       .  S
C680        C681   1.408       .  A
C680        C685   1.404       .  A
C681        C682   1.413       .  A
C681       Br692   1.934       .  S
C682        C683   1.427       .  A
C682       Br688   1.936       .  S
C683        C684   1.422       .  A
C684        C685   1.413       .  A
C684       Br693   1.926       .  S
C685       Br689   1.930       .  S
C694        C695   1.410       .  A
C694        C699   1.411       .  A
C695        C696   1.404       .  A
C695       Br707   1.928       .  S
C696        C697   1.407       .  A
C696       Br711   1.930       .  S
C697        C700   1.472       .  S
C697        C698   1.406       .  A
C698        C699   1.400       .  A
C698       Br706   1.932       .  S
C699       Br710   1.927       .  S
C700        C701   1.404       .  A
C700        C705   1.402       .  A
C701        C702   1.404       .  A
C701       Br712   1.932       .  S
C702        C703   1.417       .  A
C702       Br708   1.926       .  S
C703        C704   1.418       .  A
C704        C705   1.401       .  A
C704       Br713   1.926       .  S
C705       Br709   1.932       .  S
C714        C715   1.419       .  A
C714        C719   1.410       .  A
C715        C716   1.402       .  A
C715       Br727   1.938       .  S
C716        C717   1.404       .  A
C716       Br731   1.933       .  S
C717        C720   1.479       .  S
C717        C718   1.408       .  A
C718        C719   1.408       .  A
C718       Br726   1.929       .  S
C719       Br730   1.924       .  S
C720        C721   1.403       .  A
C720        C725   1.405       .  A
C721        C722   1.404       .  A
C721       Br732   1.937       .  S
C722        C723   1.424       .  A
C722       Br728   1.932       .  S
C723        C724   1.419       .  A
C724        C725   1.409       .  A
C724       Br733   1.929       .  S
C725       Br729   1.930       .  S
C734        C735   1.412       .  A
C734        C739   1.411       .  A
C735        C736   1.414       .  A
C735       Br747   1.927       .  S
C736        C737   1.414       .  A
C736       Br751   1.928       .  S
C737        C740   1.498       .  S
C737        C738   1.411       .  A
C738        C739   1.407       .  A
C738       Br746   1.932       .  S
C739       Br750   1.925       .  S
C740        C741   1.408       .  A
C740        C745   1.409       .  A
C741        C742   1.406       .  A
C741       Br752   1.935       .  S
C742        C743   1.417       .  A
C742       Br748   1.918       .  S
C743        C744   1.423       .  A
C744        C745   1.416       .  A
C744       Br753   1.924       .  S
C745       Br749   1.930       .  S
C754        C755   1.424       .  A
C754        C759   1.427       .  A
C755        C756   1.413       .  A
C755       Br767   1.927       .  S
C756        C757   1.409       .  A
C756       Br771   1.936       .  S
C757        C760   1.505       .  S
C757        C758   1.409       .  A
C758        C759   1.419       .  A
C758       Br766   1.932       .  S
C759       Br770   1.927       .  S
C760        C761   1.408       .  A
C760        C765   1.411       .  A
C761        C762   1.409       .  A
C761       Br772   1.919       .  S
C762        C763   1.418       .  A
C762       Br768   1.937       .  S
C763        C764   1.416       .  A
C764        C765   1.417       .  A
C764       Br773   1.921       .  S
C765       Br769   1.930       .  S
C774        C775   1.418       .  A
C774        C779   1.416       .  A
C775        C776   1.407       .  A
C775       Br787   1.920       .  S
C776        C777   1.407       .  A
C776       Br791   1.932       .  S
C777        C780   1.494       .  S
C777        C778   1.410       .  A
C778        C779   1.409       .  A
C778       Br786   1.930       .  S
C779       Br790   1.926       .  S
C780        C781   1.411       .  A
C780        C785   1.414       .  A
C781        C782   1.408       .  A
C781       Br792   1.932       .  S
C782        C783   1.411       .  A
C782       Br788   1.925       .  S
C783        C784   1.410       .  A
C784        C785   1.412       .  A
C784       Br793   1.928       .  S
C785       Br789   1.931       .  S
C794        C795   1.416       .  A
C794        C799   1.416       .  A
C795        C796   1.405       .  A
C795       Br807   1.934       .  S
C796        C797   1.407       .  A
C796       Br811   1.932       .  S
C797        C800   1.486       .  S
C797        C798   1.409       .  A
C798        C799   1.409       .  A
C798       Br806   1.930       .  S
C799       Br810   1.931       .  S
C800        C801   1.405       .  A
C800        C805   1.409       .  A
C801        C802   1.403       .  A
C801       Br812   1.937       .  S
C802        C803   1.422       .  A
C802       Br808   1.937       .  S
C803        C804   1.414       .  A
C804        C805   1.413       .  A
C804       Br813   1.923       .  S
C805       Br809   1.929       .  S
C814        C815   1.412       .  A
C814        C819   1.413       .  A
C815        C816   1.412       .  A
C815       Br827   1.930       .  S
C816        C817   1.412       .  A
C816       Br831   1.927       .  S
C817        C820   1.491       .  S
C817        C818   1.409       .  A
C818        C819   1.403       .  A
C818       Br826   1.932       .  S
C819       Br830   1.930       .  S
C820        C821   1.407       .  A
C820        C825   1.406       .  A
C821        C822   1.415       .  A
C821       Br832   1.931       .  S
C822        C823   1.423       .  A
C822       Br828   1.924       .  S
C823        C824   1.417       .  A
C824        C825   1.405       .  A
C824       Br833   1.920       .  S
C825       Br829   1.935       .  S
C834        C835   1.417       .  A
C834        C839   1.414       .  A
C835        C836   1.400       .  A
C835       Br847   1.939       .  S
C836        C837   1.404       .  A
C836       Br851   1.923       .  S
C837        C840   1.481       .  S
C837        C838   1.407       .  A
C838        C839   1.407       .  A
C838       Br846   1.931       .  S
C839       Br850   1.922       .  S
C840        C841   1.410       .  A
C840        C845   1.409       .  A
C841        C842   1.402       .  A
C841       Br852   1.932       .  S
C842        C843   1.408       .  A
C842       Br848   1.927       .  S
C843        C844   1.413       .  A
C844        C845   1.406       .  A
C844       Br853   1.933       .  S
C845       Br849   1.929       .  S
C854        C855   1.415       .  A
C854        C859   1.420       .  A
C855        C856   1.408       .  A
C855       Br867   1.923       .  S
C856        C857   1.410       .  A
C856       Br871   1.935       .  S
C857        C860   1.498       .  S
C857        C858   1.411       .  A
C858        C859   1.418       .  A
C858       Br866   1.930       .  S
C859       Br870   1.927       .  S
C860        C861   1.407       .  A
C860        C865   1.408       .  A
C861        C862   1.413       .  A
C861       Br872   1.931       .  S
C862        C863   1.419       .  A
C862       Br868   1.913       .  S
C863        C864   1.420       .  A
C864        C865   1.410       .  A
C864       Br873   1.935       .  S
C865       Br869   1.930       .  S
C874        C875   1.416       .  A
C874        C879   1.413       .  A
C875        C876   1.401       .  A
C875       Br887   1.938       .  S
C876        C877   1.406       .  A
C876       Br891   1.934       .  S
C877        C880   1.479       .  S
C877        C878   1.407       .  A
C878        C879   1.409       .  A
C878       Br886   1.929       .  S
C879       Br890   1.923       .  S
C880        C881   1.406       .  A
C880        C885   1.409       .  A
C881        C882   1.407       .  A
C881       Br892   1.928       .  S
C882        C883   1.414       .  A
C882       Br888   1.931       .  S
C883        C884   1.413       .  A
C884        C885   1.404       .  A
C884       Br893   1.932       .  S
C885       Br889   1.934       .  S
C894        C895   1.415       .  A
C894        C899   1.419       .  A
C895        C896   1.413       .  A
C895       Br907   1.923       .  S
C896        C897   1.408       .  A
C896       Br911   1.929       .  S
C897        C900   1.493       .  S
C897        C898   1.408       .  A
C898        C899   1.408       .  A
C898       Br906   1.932       .  S
C899       Br910   1.936       .  S
C900        C901   1.403       .  A
C900        C905   1.408       .  A
C901        C902   1.405       .  A
C901       Br912   1.937       .  S
C902        C903   1.424       .  A
C902       Br908   1.925       .  S
C903        C904   1.423       .  A
C904        C905   1.418       .  A
C904       Br913   1.926       .  S
C905       Br909   1.930       .  S
C914        C915   1.418       .  A
C914        C919   1.418       .  A
C915        C916   1.410       .  A
C915       Br927   1.924       .  S
C916        C917   1.408       .  A
C916       Br931   1.934       .  S
C917        C920   1.494       .  S
C917        C918   1.409       .  A
C918        C919   1.414       .  A
C918       Br926   1.928       .  S
C919       Br930   1.932       .  S
C920        C921   1.411       .  A
C920        C925   1.408       .  A
C921        C922   1.413       .  A
C921       Br932   1.928       .  S
C922        C923   1.412       .  A
C922       Br928   1.925       .  S
C923        C924   1.421       .  A
C924        C925   1.409       .  A
C924       Br933   1.936       .  S
C925       Br929   1.932       .  S
C934        C935   1.413       .  A
C934        C939   1.421       .  A
C935        C936   1.410       .  A
C935       Br947   1.924       .  S
C936        C937   1.409       .  A
C936       Br951   1.932       .  S
C937        C940   1.484       .  S
C937        C938   1.405       .  A
C938        C939   1.403       .  A
C938       Br946   1.935       .  S
C939       Br950   1.939       .  S
C940        C941   1.407       .  A
C940        C945   1.410       .  A
C941        C942   1.407       .  A
C941       Br952   1.930       .  S
C942        C943   1.416       .  A
C942       Br948   1.932       .  S
C943        C944   1.418       .  A
C944        C945   1.405       .  A
C944       Br953   1.937       .  S
C945       Br949   1.936       .  S
C954        C955   1.414       .  A
C954        C959   1.424       .  A
C955        C956   1.415       .  A
C955       Br967   1.925       .  S
C956        C957   1.412       .  A
C956       Br971   1.930       .  S
C957        C960   1.499       .  S
C957        C958   1.408       .  A
C958        C959   1.410       .  A
C958       Br966   1.933       .  S
C959       Br970   1.939       .  S
C960        C961   1.411       .  A
C960        C965   1.411       .  A
C961        C962   1.410       .  A
C961       Br972   1.933       .  S
C962        C963   1.415       .  A
C962       Br968   1.928       .  S
C963        C964   1.412       .  A
C964        C965   1.415       .  A
C964       Br973   1.921       .  S
C965       Br969   1.929       .  S
C974        C975   1.427       .  A
C974        C979   1.435       .  A
C975        C976   1.408       .  A
C975       Br987   1.930       .  S
C976        C977   1.400       .  A
C976       Br991   1.928       .  S
C977        C980   1.495       .  S
C977        C978   1.404       .  A
C978        C979   1.418       .  A
C978       Br986   1.932       .  S
C979       Br990   1.934       .  S
C980        C981   1.408       .  A
C980        C985   1.409       .  A
C981        C982   1.410       .  A
C981       Br992   1.934       .  S
C982        C983   1.423       .  A
C982       Br988   1.935       .  S
C983        C984   1.415       .  A
C984        C985   1.413       .  A
C984       Br993   1.923       .  S
C985       Br989   1.928       .  S
