geometry optimzed in LAMMPS
_audit_creation_date              2020-11-30 
_audit_creation_method            'lammps2cif' 
_symmetry_space_group_name_H-M    'P1' 
_symmetry_Int_Tables_number       1 
_symmetry_cell_setting            triclinic 
loop_ 
_symmetry_equiv_pos_as_xyz 
  x,y,z 
_cell_length_a                    31.800779776092607 
_cell_length_b                    31.777934662174843 
_cell_length_c                    25.591806462274242 
_cell_angle_alpha                 90.7837091111365 
_cell_angle_beta                  90.51476378727223 
_cell_angle_gamma                 120.1934684136058 
loop_ 
_atom_site_label 
_atom_site_type_symbol 
_atom_site_fract_x 
_atom_site_fract_y 
_atom_site_fract_z 
_atom_site_charge 
C1          C  0.82563679  0.82513217  0.76790456     0.42460
N2          N  0.80555280  0.75026504  0.76405952     0.01350
C3          C  0.94340007  0.65136738  0.85582242    -0.06520
H4          H  0.02266229  0.76945254  0.71044109     0.06840
C5          C  0.88673109  0.66368932  0.58456208    -0.06880
Co6        Co  0.87592931  0.73055066  0.82180604     0.74180
N7          N  0.95628383  0.74552425  0.75230455    -0.26050
Co8        Co  0.91683960  0.67012014  0.74401070     0.74070
C9          C  0.94024858  0.68888236  0.58432396     0.42560
N10         N  0.78122526  0.66022383  0.64259521     0.00970
N11         N  0.91580838  0.67547238  0.66339757     0.01070
N12         N  0.91537146  0.69120595  0.90467060    -0.46900
H13         H  0.89657161  0.84618674  0.81355429     0.06830
N14         N  0.94014370  0.76860808  0.78160849     0.01360
N15         N  0.87439189  0.59472789  0.73525434     0.01100
C16         C  0.84906390  0.51797060  0.73523393     0.42700
N17         N  0.76378039  0.68078257  0.67424809    -0.25510
C18         C  0.80706346  0.69299957  0.91235777    -0.06430
N19         N  0.79082734  0.78084954  0.75077474    -0.46620
N20         N  0.88521827  0.56211255  0.75220030    -0.46840
C21         C  0.75587614  0.67753800  0.92082600     0.42480
N22         N  0.90307675  0.68936704  0.85481515     0.01350
N23         N  0.72785216  0.60076091  0.74656599    -0.25530
N24         N  0.84795475  0.77159335  0.78904036    -0.26020
N25         N  0.74234909  0.57840290  0.71374894     0.00990
H26         H  0.66580658  0.57668734  0.79495309     0.06880
H27         H  0.78310244  0.50166715  0.68214060     0.06910
N28         N  0.91930367  0.66656683  0.82519894    -0.26070
N29         N  0.87496078  0.65644197  0.63549669    -0.25690
N30         N  0.76865628  0.67293338  0.83800608     0.01350
C31         C  0.00989720  0.82487612  0.75679461     0.42750
C32         C  0.74485221  0.70234612  0.64528076    -0.06940
N33         N  0.83367828  0.57489848  0.70714144    -0.25680
H34         H  0.86122156  0.65052883  0.55187989     0.06900
N35         N  0.97127731  0.81584198  0.78593560    -0.46910
H36         H  0.72726609  0.72150891  0.66020353     0.06880
C37         C  0.67359653  0.52191540  0.74131741     0.42580
C38         C  0.86394850  0.81942744  0.79291162    -0.06430
Co39       Co  0.76544603  0.67574166  0.75586140     0.73820
N40         N  0.77508730  0.66657450  0.59251641    -0.46620
C41         C  0.94004523  0.66709514  0.90900267     0.42850
N42         N  0.73434643  0.66491253  0.87232567    -0.46610
Co43       Co  0.80767135  0.61699592  0.67329789     0.73890
C44         C  0.81520945  0.52660808  0.70450178    -0.06940
C45         C  0.00005041  0.77801700  0.73444242    -0.06500
N46         N  0.81163568  0.69181215  0.86096934    -0.26030
N47         N  0.95520373  0.69502693  0.63453630    -0.46790
H48         H  0.96458604  0.63556903  0.84206429     0.06860
C49         C  0.68555932  0.56806539  0.76696998    -0.06920
Cl50       Cl  0.84132289  0.67322544  0.74856167    -0.49920
C51         C  0.75286151  0.69336466  0.59128571     0.42610
H52         H  0.83815787  0.70832317  0.93797301     0.06820
N53         N  0.71083804  0.53111738  0.70944774    -0.46630
C54         C  0.94286036  0.26254279  0.58493215     0.42460
N55         N  0.91920902  0.24631565  0.66420441     0.01350
C56         C  0.78633986  0.01535536  0.76623678    -0.06520
H57         H  0.68625153  0.04486940  0.64889827     0.06840
C58         C  0.72622775  0.20503546  0.77950967    -0.06880
Co59       Co  0.86815126  0.13911015  0.67925863     0.74180
N60         N  0.76121640  0.09620074  0.66915179    -0.26050
Co61       Co  0.76416766  0.09956907  0.75094607     0.74070
C62         C  0.68486494  0.17203138  0.74624760     0.42560
N63         N  0.84997594  0.27529402  0.78100777     0.00970
N64         N  0.73290003  0.14351413  0.75440718     0.01070
N65         N  0.85458646  0.04335165  0.71898864    -0.46900
H66         H  0.90130920  0.18177551  0.56060831     0.06830
N67         N  0.80149214  0.11319428  0.64217286     0.01360
N68         N  0.76788127  0.10140006  0.83240756     0.01100
C69         C  0.75527183  0.07838232  0.91199078     0.42700
N70         N  0.88771510  0.28899959  0.75051754    -0.25510
C71         C  0.96584353  0.14843167  0.71439672    -0.06430
N72         N  0.94774527  0.28234411  0.63322657    -0.46620
N73         N  0.74718170  0.06240830  0.86191759    -0.46840
C74         C  0.00991304  0.18538871  0.74178241     0.42480
N75         N  0.83882680  0.07465347  0.72010312     0.01350
N76         N  0.92717784  0.25236652  0.82603590    -0.25530
N77         N  0.89765172  0.20377610  0.63939768    -0.26020
N78         N  0.88955117  0.23591207  0.85712821     0.00990
H79         H  0.00325689  0.29674260  0.83705159     0.06880
H80         H  0.79532490  0.15782075  0.94332119     0.06910
N81         N  0.79885218  0.05911490  0.74724995    -0.26070
N82         N  0.75405247  0.18461833  0.78219636    -0.25690
N83         N  0.95635954  0.20761345  0.74185535     0.01350
C84         C  0.74492104  0.06976026  0.58607342     0.42750
C85         C  0.89988871  0.33213229  0.73022516    -0.06940
N86         N  0.78944792  0.14266634  0.85993398    -0.25680
H87         H  0.73363593  0.23852690  0.79905959     0.06900
N88         N  0.79331209  0.09803676  0.59288351    -0.46910
H89         H  0.92978648  0.35168436  0.70427293     0.06880
C90         C  0.95302248  0.27116067  0.90829168     0.42580
C91         C  0.90918714  0.21048875  0.58893467    -0.06430
Co92       Co  0.92286157  0.24933400  0.74551444     0.73820
N93         N  0.83560551  0.30779972  0.78334257    -0.46620
C94         C  0.82387470  0.00517461  0.74777968     0.42850
N95         N  0.00118648  0.22097140  0.75751453    -0.46610
Co96       Co  0.82040986  0.20978407  0.82162092     0.73890
C97         C  0.78316208  0.13177879  0.91107822    -0.06940
C98         C  0.72331129  0.06845253  0.63680292    -0.06500
N99         N  0.93509388  0.16547519  0.71637239    -0.26030
N100        N  0.69081885  0.13406441  0.73314158    -0.46790
H101        H  0.75425853  0.99313530  0.78878241     0.06860
C102        C  0.96799833  0.27618367  0.85415470    -0.06920
Cl103      Cl  0.84388595  0.17444561  0.74942860    -0.49920
C104        C  0.86576698  0.34512465  0.75282812     0.42610
H105        H  0.95919574  0.11607669  0.69294843     0.06820
N106        N  0.90340655  0.24690011  0.90715400    -0.46630
C107        C  0.07252146  0.75693797  0.40949887     0.42460
N108        N  0.09661947  0.76171230  0.33048322     0.01350
C109        C  0.32784347  0.89055246  0.22826714    -0.06520
H110        H  0.28379553  0.99659354  0.34191055     0.06840
C111        C  0.13950752  0.95414044  0.21826409    -0.06880
Co112      Co  0.20505030  0.81242046  0.32000926     0.74180
N113        N  0.24668627  0.91973805  0.32555662    -0.26050
Co114      Co  0.24480567  0.91589252  0.24447071     0.74070
C115        C  0.17401319  0.99663895  0.24936349     0.42560
N116        N  0.06949013  0.82851190  0.21686573     0.00970
N117        N  0.20136908  0.94756939  0.24162171     0.01070
N118        N  0.30074683  0.82465435  0.27906571    -0.46900
H119        H  0.15164767  0.79580836  0.44174237     0.06830
N120        N  0.23155565  0.88126199  0.35506742     0.01360
N121        N  0.24241511  0.91373746  0.16242495     0.01100
C122        C  0.25663703  0.93840789  0.08264069     0.42700
N123        N  0.05462237  0.78838959  0.24330640    -0.25510
C124        C  0.19739300  0.71439921  0.28587109    -0.06430
N125        N  0.05730756  0.74543942  0.35938258    -0.46620
N126        N  0.27714020  0.94420761  0.13094559    -0.46840
C127        C  0.16223602  0.67091855  0.25671257     0.42480
N128        N  0.27003498  0.84126482  0.27842188     0.01350
N129        N  0.09495117  0.75159031  0.16755828    -0.25530
N130        N  0.13761121  0.78347874  0.35831003    -0.26020
N131        N  0.11054943  0.79145260  0.14012730     0.00990
H132        H  0.05159421  0.67531589  0.14653707     0.06880
H133        H  0.17621838  0.88705546  0.05951370     0.06910
N134        N  0.28500776  0.88000285  0.24899835    -0.26070
N135        N  0.15928256  0.92559107  0.21595797    -0.25690
N136        N  0.13856959  0.72314029  0.25580397     0.01350
C137        C  0.26416725  0.94251817  0.40918959     0.42750
C138        C  0.01011202  0.77364003  0.26108016    -0.06940
N139        N  0.19998006  0.88958972  0.13790576    -0.25680
H140        H  0.10590182  0.94675728  0.19922517     0.06900
N141        N  0.24196718  0.89330962  0.40534741    -0.46910
H142        H  0.98889936  0.74098885  0.28275689     0.06880
C143        C  0.07565918  0.73315969  0.08284954     0.42580
C144        C  0.12602318  0.78152287  0.40918617    -0.06430
Co145      Co  0.09590365  0.75533459  0.24926222     0.73820
N146        N  0.03693402  0.84278513  0.21551726    -0.46620
C147        C  0.33804221  0.85327658  0.24791311     0.42850
N148        N  0.12643891  0.67860754  0.23969406    -0.46610
Co149      Co  0.13467283  0.85879886  0.17718039     0.73890
C150        C  0.20580399  0.90009580  0.08723950    -0.06940
C151        C  0.26696045  0.95980718  0.35602974    -0.06500
N152        N  0.17955916  0.74460757  0.28346461    -0.26030
N153        N  0.21211277  0.99068938  0.26117539    -0.46790
H154        H  0.34944600  0.92098415  0.20335701     0.06860
C155        C  0.07222428  0.71287129  0.13481465    -0.06920
Cl156      Cl  0.17027538  0.83556495  0.24755784    -0.49920
C157        C  0.99847020  0.80978093  0.24265896     0.42610
H158        H  0.22926660  0.72089960  0.30798841     0.06820
N159        N  0.09904810  0.78197513  0.08985817    -0.46630
C160        C  0.49820104  0.33470578  0.74864077     0.42460
N161        N  0.42222454  0.28458569  0.75860061     0.01350
C162        C  0.32718748  0.05434089  0.86085910    -0.06520
H163        H  0.44637514  0.09431088  0.70709665     0.06840
C164        C  0.31889206  0.10537395  0.59193462    -0.06880
Co165      Co  0.40601363  0.20115760  0.82483497     0.74180
N166        N  0.42072572  0.13417218  0.75309860    -0.26050
Co167      Co  0.34511718  0.09453787  0.74901496     0.74070
C168        C  0.34179325  0.07592998  0.58594696     0.42560
N169        N  0.32196683  0.20946154  0.64639265     0.00970
N170        N  0.34429868  0.09592085  0.66711457     0.01070
N171        N  0.36517657  0.12333644  0.91076438    -0.46900
H172        H  0.52003361  0.29110649  0.80244447     0.06830
N173        N  0.44341512  0.17396981  0.78281861     0.01360
N174        N  0.26955315  0.05796878  0.74579042     0.01100
C175        C  0.19410524  0.00434847  0.74997005     0.42700
N176        N  0.34599731  0.25015458  0.67423640    -0.25510
C177        C  0.36434425  0.24000576  0.91457893    -0.06430
N178        N  0.45304465  0.32576053  0.73594800    -0.46620
N179        N  0.23927256  0.01420722  0.76382170    -0.46840
C180        C  0.33723761  0.26668208  0.91477816     0.42480
N181        N  0.36691829  0.13316249  0.86022397     0.01350
N182        N  0.27111857  0.21132670  0.75091162    -0.25530
N183        N  0.44443530  0.26662706  0.78640573    -0.26020
N184        N  0.24763487  0.16997818  0.72419044     0.00990
H185        H  0.24788249  0.25691404  0.78779026     0.06880
H186        H  0.17134796  0.05059048  0.70216436     0.06910
N187        N  0.34506763  0.09327863  0.83044115    -0.26070
N188        N  0.32168487  0.11550461  0.64301329    -0.25690
N189        N  0.34553431  0.24816055  0.83577659     0.01350
C190        C  0.50060332  0.16469252  0.75194314     0.42750
C191        C  0.35748451  0.28801142  0.64336562    -0.06940
N192        N  0.24687069  0.07693412  0.72061050    -0.25680
H193        H  0.29765113  0.11224834  0.56370376     0.06900
N194        N  0.49113836  0.19314727  0.78330100    -0.46910
H195        H  0.37407801  0.32542355  0.65676340     0.06880
C196        C  0.19140377  0.18371965  0.74862368     0.42580
C197        C  0.49257200  0.29618145  0.78315832    -0.06430
Co198      Co  0.34668216  0.24936971  0.75505110     0.73820
N199        N  0.31464998  0.21737608  0.59747218    -0.46620
C200        C  0.34132055  0.07416331  0.91369289     0.42850
N201        N  0.32720606  0.26969946  0.86438075    -0.46610
Co202      Co  0.28437821  0.14283438  0.68309152     0.73890
C203        C  0.19898600  0.04581138  0.72146207    -0.06940
C204        C  0.45400516  0.12536065  0.73172609    -0.06500
N205        N  0.36766590  0.23022738  0.86375817    -0.26030
N206        N  0.35537056  0.07026067  0.63448352    -0.46790
H207        H  0.30819518  0.01673736  0.84741295     0.06860
C208        C  0.23873227  0.22326225  0.76780619    -0.06920
Cl209      Cl  0.34551214  0.17192129  0.75309652    -0.49920
C210        C  0.33579338  0.26607202  0.59247968     0.42610
H211        H  0.38113836  0.23190874  0.94682146     0.06820
N212        N  0.20031635  0.15268822  0.72137082    -0.46630
C213        C  0.07511545  0.32572418  0.41438167     0.42460
N214        N  0.13487489  0.35412546  0.36173798     0.01350
C215        C  0.11008244  0.31790676  0.09339654    -0.06520
H216        H  0.05999281  0.16443031  0.19324469     0.06840
C217        C  0.22951928  0.23185570  0.26294506    -0.06880
Co218      Co  0.09720862  0.33403540  0.25141059     0.74180
N219        N  0.08327189  0.23819254  0.21618209    -0.26050
Co220      Co  0.14928243  0.27920825  0.17955716     0.74070
C221        C  0.19082629  0.18513786  0.24217527     0.42560
N222        N  0.25067661  0.33614479  0.33483183     0.00970
N223        N  0.17730979  0.24128799  0.21767841     0.01070
N224        N  0.07311409  0.35003071  0.14102729    -0.46900
H225        H  0.01890934  0.29054911  0.34727216     0.06830
N226        N  0.06336321  0.25847579  0.24420569     0.01360
N227        N  0.21698851  0.32019895  0.14418220     0.01100
C228        C  0.27625796  0.33833639  0.09165890     0.42700
N229        N  0.23163444  0.35712148  0.36318035    -0.25510
C230        C  0.12222751  0.44177000  0.23975692    -0.06430
N231        N  0.12428682  0.35220929  0.41206535    -0.46620
N232        N  0.22714268  0.31553979  0.09507561    -0.46840
C233        C  0.16106364  0.48907417  0.25885439     0.42480
N234        N  0.09924099  0.33749493  0.17078852     0.01350
N235        N  0.26895306  0.43682139  0.28922024    -0.25530
N236        N  0.09545809  0.33071257  0.33178626    -0.26020
N237        N  0.28819352  0.41564664  0.26138123     0.00990
H238        H  0.29288960  0.51224704  0.30735454     0.06880
H239        H  0.33272846  0.37516956  0.15863356     0.06910
N240        N  0.12021159  0.31758145  0.14387655    -0.26070
N241        N  0.21770294  0.26447560  0.24614297    -0.25690
N242        N  0.17405666  0.43352281  0.28746368     0.01350
C243        C  0.01274886  0.18168667  0.24736056     0.42750
C244        C  0.23825058  0.35099110  0.41388303    -0.06940
N245        N  0.25668021  0.34371201  0.17357330    -0.25680
H246        H  0.26215097  0.24016129  0.28460514     0.06900
N247        N  0.02071181  0.22599990  0.26295579    -0.46910
H248        H  0.22773874  0.36564214  0.44629998     0.06880
C249        C  0.33829063  0.49175291  0.25455194     0.42580
C250        C  0.05614319  0.31081916  0.36152580    -0.06430
Co251      Co  0.20278924  0.39608602  0.32675460     0.73820
N252        N  0.27043755  0.31611673  0.36335445    -0.46620
C253        C  0.07853543  0.33919292  0.09137471     0.42850
N254        N  0.19137101  0.48115849  0.28894183    -0.46610
Co255      Co  0.25406419  0.34034789  0.25425630     0.73890
C256        C  0.29580512  0.35824768  0.14377006    -0.06940
C257        C  0.05376920  0.18986386  0.21531031    -0.06500
N258        N  0.13369683  0.40969860  0.25892636    -0.26030
N259        N  0.16013498  0.19379726  0.21400752    -0.46790
H260        H  0.11830313  0.29946073  0.06281916     0.06860
C261        C  0.29850202  0.48519991  0.28767464    -0.06920
Cl262      Cl  0.17587288  0.33747665  0.25294648    -0.49920
C263        C  0.26435103  0.32353392  0.41386439     0.42610
H264        H  0.09048463  0.43299950  0.21592230     0.06820
N265        N  0.33020816  0.44722078  0.24067398    -0.46630
C266        C  0.82723304  0.82723551  0.24782453     0.42460
N267        N  0.75103962  0.80240585  0.23970897     0.01350
C268        C  0.66388001  0.94560762  0.13674864    -0.06520
H269        H  0.76831883  0.01434852  0.29805425     0.06840
C270        C  0.65511668  0.88102122  0.40822784    -0.06880
Co271      Co  0.73339035  0.87080110  0.17719747     0.74180
N272        N  0.74666333  0.95139800  0.24899324    -0.26050
Co273      Co  0.67127372  0.91330107  0.24984796     0.74070
C274        C  0.68044068  0.93425011  0.41143035     0.42560
N275        N  0.65486513  0.77696623  0.35229254     0.00970
N276        N  0.67230739  0.91156647  0.33104920     0.01070
N277        N  0.70185361  0.91370089  0.09165839    -0.46900
H278        H  0.84732006  0.89452637  0.19800003     0.06830
N279        N  0.77080047  0.93607712  0.22042615     0.01360
N280        N  0.59553683  0.87207850  0.25138598     0.01100
C281        C  0.51956597  0.85021215  0.24713140     0.42700
N282        N  0.67830894  0.76116531  0.32305753    -0.25510
C283        C  0.69257437  0.79526581  0.08475356    -0.06430
N284        N  0.78229560  0.79058225  0.25921245    -0.46620
N285        N  0.56456730  0.88483646  0.23299754    -0.46840
C286        C  0.66926382  0.74210845  0.07885792     0.42480
N287        N  0.69445394  0.89855189  0.14031633     0.01350
N288        N  0.60005577  0.72266092  0.24475237    -0.25530
N289        N  0.77266416  0.84391785  0.21492231    -0.26020
N290        N  0.57645542  0.73888166  0.27302360     0.00990
H291        H  0.57652259  0.65600117  0.20033152     0.06880
H292        H  0.49903050  0.78244522  0.29662140     0.06910
N293        N  0.67240744  0.91681213  0.16792331    -0.26070
N294        N  0.65126605  0.87039367  0.35673159    -0.25690
N295        N  0.67307406  0.76277299  0.16043091     0.01350
C296        C  0.82576582  0.00494466  0.25297041     0.42750
C297        C  0.70037977  0.74416262  0.35397242    -0.06940
N298        N  0.57382834  0.83115477  0.27755211    -0.25680
H299        H  0.63946465  0.85489516  0.43908371     0.06900
N300        N  0.81828071  0.96719277  0.22143031    -0.46910
H301        H  0.72139673  0.72794379  0.34091556     0.06880
C302        C  0.52080127  0.66997988  0.24220141     0.42580
C303        C  0.82081574  0.86213629  0.21739503    -0.06430
Co304      Co  0.67557871  0.76137679  0.24184186     0.73820
N305        N  0.65919070  0.77082066  0.40297616    -0.46620
C306        C  0.68358419  0.94363266  0.08529657     0.42850
N307        N  0.65867832  0.72494401  0.12797061    -0.46610
Co308      Co  0.61349018  0.80393145  0.31599835     0.73890
C309        C  0.52582004  0.81443358  0.27669757    -0.06940
C310        C  0.77822392  0.99390565  0.27213002    -0.06500
N311        N  0.69449526  0.80456664  0.13612228    -0.26030
N312        N  0.69009295  0.95045162  0.36226114    -0.46790
H313        H  0.65156890  0.96952770  0.15098177     0.06860
C314        C  0.56784773  0.67913663  0.22369569    -0.06920
Cl315      Cl  0.67330268  0.83733477  0.24615978    -0.49920
C316        C  0.68750248  0.75022539  0.40678094     0.42610
H317        H  0.71118176  0.82251707  0.05550883     0.06820
N318        N  0.52899947  0.70812156  0.27315417    -0.46630
C319        C  0.92352791  0.13898152  0.24728420    -0.05780
C320        C  0.96577686  0.13592890  0.25255699     0.00150
C321        C  0.96178472  0.09018633  0.26207040    -0.08420
C322        C  0.91503812  0.04864610  0.26338974    -0.05800
C323        C  0.87268067  0.05150735  0.25662478     0.00140
C324        C  0.87684840  0.09763806  0.24856935    -0.08330
C325        C  0.83310311  0.10407638  0.23950476     0.62050
H326        H  0.92745784  0.17438265  0.24082889     0.12740
H327        H  0.91123684  0.01317176  0.26899497     0.12750
C328        C  0.00593541  0.08438293  0.27082092     0.62280
F329        F  0.84662932  0.15017207  0.22208963    -0.22880
F330        F  0.80896261  0.09791729  0.28586315    -0.20210
F331        F  0.80198832  0.07099759  0.20202039    -0.19890
F332        F  0.04069257  0.12223371  0.30171164    -0.19940
F333        F  0.02565205  0.08330631  0.22328756    -0.20270
F334        F  0.99350225  0.04143385  0.29587100    -0.22940
C335        C  0.43950445  0.61221628  0.20552861    -0.05780
C336        C  0.47565715  0.62267017  0.24343804     0.00150
C337        C  0.46720657  0.58929806  0.28355908    -0.08420
C338        C  0.42153270  0.54671997  0.28538476    -0.05800
C339        C  0.38487188  0.53676653  0.24830201     0.00140
C340        C  0.39389615  0.56936775  0.20698774    -0.08330
C341        C  0.35754926  0.56106543  0.16347948     0.62050
H342        H  0.44677831  0.63807480  0.17480409     0.12740
H343        H  0.41387951  0.52081999  0.31608877     0.12750
C344        C  0.50628735  0.59869855  0.32414182     0.62280
F345        F  0.35007238  0.60030520  0.16217239    -0.22880
F346        F  0.31292931  0.51930725  0.16905681    -0.20210
F347        F  0.37642730  0.55760908  0.11618649    -0.19890
F348        F  0.51961152  0.64144330  0.35169145    -0.19940
F349        F  0.54661135  0.60253013  0.29964874    -0.20270
F350        F  0.49042214  0.56143610  0.35958499    -0.22940
C351        C  0.27982511  0.32477556  0.50940385    -0.05780
C352        C  0.28557027  0.31048534  0.45899515     0.00150
C353        C  0.31102838  0.28428716  0.45352606    -0.08420
C354        C  0.32925300  0.27377450  0.49862421    -0.05800
C355        C  0.32269998  0.28737892  0.54861466     0.00140
C356        C  0.29727325  0.31322128  0.55455300    -0.08330
C357        C  0.28684498  0.32745200  0.60777764     0.62050
H358        H  0.26087134  0.34481259  0.51359339     0.12740
H359        H  0.34785180  0.25316967  0.49550036     0.12750
C360        C  0.31788910  0.26533468  0.40129818     0.62280
F361        F  0.25552321  0.34570365  0.60408959    -0.22880
F362        F  0.32968646  0.36332706  0.63074838    -0.20210
F363        F  0.26535274  0.28735028  0.63952537    -0.19890
F364        F  0.34506481  0.30373572  0.36868046    -0.19940
F365        F  0.27285974  0.23398682  0.37881402    -0.20270
F366        F  0.34218915  0.23961786  0.40645354    -0.22940
C367        C  0.34067690  0.28649332  0.00994379    -0.05780
C368        C  0.32563853  0.29030442  0.95933277     0.00150
C369        C  0.30018842  0.31649759  0.95304599    -0.08420
C370        C  0.28730373  0.33336396  0.99777548    -0.05800
C371        C  0.30030438  0.32740016  0.04814557     0.00140
C372        C  0.32932655  0.30525364  0.05453005    -0.08330
C373        C  0.34841894  0.30086469  0.10753523     0.62050
H374        H  0.36157374  0.26846786  0.01458725     0.12740
H375        H  0.26548239  0.35060426  0.99396399     0.12750
C376        C  0.28478340  0.32600867  0.90020033     0.62280
F377        F  0.36973252  0.27213938  0.10517645    -0.22880
F378        F  0.31097334  0.28009972  0.14256320    -0.20210
F379        F  0.38340776  0.34655334  0.12567434    -0.19890
F380        F  0.25109127  0.28221841  0.87700476    -0.19940
F381        F  0.32488950  0.35054178  0.86883472    -0.20270
F382        F  0.26323720  0.35445385  0.90426769    -0.22940
C383        C  0.32816100  0.99743206  0.03193097    -0.05780
C384        C  0.27795676  0.97618036  0.04124411     0.00150
C385        C  0.25081321  0.99313123  0.01223806    -0.08420
C386        C  0.27388818  0.02630525  0.97201384    -0.05800
C387        C  0.32303183  0.04548556  0.96156346     0.00140
C388        C  0.35125034  0.03208367  0.99250227    -0.08330
C389        C  0.40512503  0.05361668  0.98272643     0.62050
H390        H  0.34904223  0.98580624  0.05502925     0.12740
H391        H  0.25318049  0.03703879  0.94728967     0.12750
C392        C  0.19798179  0.97789797  0.02209577     0.62280
F393        F  0.42661225  0.03692697  0.01772145    -0.22880
F394        F  0.42840024  0.10379937  0.98787848    -0.20210
F395        F  0.41175603  0.04125835  0.93268335    -0.19890
F396        F  0.18915091  0.97585312  0.07506623    -0.19940
F397        F  0.16776037  0.93339719  0.99776288    -0.20270
F398        F  0.18623056  0.01093674  0.00175608    -0.22940
C399        C  0.32398646  0.02255069  0.44932839    -0.05780
C400        C  0.28780829  0.97366122  0.45693482     0.00150
C401        C  0.27445859  0.95737531  0.50891739    -0.08420
C402        C  0.29577139  0.99146674  0.55070642    -0.05800
C403        C  0.32919506  0.04071864  0.54213220     0.00140
C404        C  0.34445594  0.05649944  0.49095120    -0.08330
C405        C  0.38206201  0.10922200  0.48045272     0.62050
H406        H  0.33572046  0.03475633  0.41017917     0.12740
H407        H  0.28465475  0.98045646  0.59042830     0.12750
C408        C  0.23691572  0.90501221  0.52065785     0.62280
F409        F  0.39618613  0.11588452  0.42880376    -0.22880
F410        F  0.42302094  0.12338515  0.51152952    -0.20210
F411        F  0.36313826  0.13903614  0.49156951    -0.19890
F412        F  0.25364584  0.87444234  0.50442161    -0.19940
F413        F  0.19344001  0.89216223  0.49513096    -0.20270
F414        F  0.22777908  0.89816778  0.57357850    -0.22940
C415        C  0.19996021  0.07406380  0.20622908    -0.05780
C416        C  0.17751227  0.04446612  0.24892176     0.00150
C417        C  0.15962300  0.06099104  0.28988741    -0.08420
C418        C  0.16496594  0.10764103  0.28673406    -0.05800
C419        C  0.18781370  0.13744969  0.24408973     0.00140
C420        C  0.20561813  0.12066203  0.20316946    -0.08330
C421        C  0.23217463  0.15267283  0.15764139     0.62050
H422        H  0.21352821  0.06045647  0.17555799     0.12740
H423        H  0.15129364  0.12115642  0.31737722     0.12750
C424        C  0.13523713  0.02926330  0.33638315     0.62280
F425        F  0.24625560  0.12929178  0.12180242    -0.22880
F426        F  0.27345791  0.19357475  0.17655604    -0.20210
F427        F  0.20262622  0.16632522  0.13188755    -0.19890
F428        F  0.16771959  0.01930697  0.36183189    -0.19940
F429        F  0.09518594  0.98595386  0.31949491    -0.20270
F430        F  0.11973923  0.05171380  0.37178792    -0.22940
C431        C  0.19830904  0.62059633  0.23297265    -0.05780
C432        C  0.15997381  0.62343845  0.25600877     0.00150
C433        C  0.12210259  0.58211848  0.28034033    -0.08420
C434        C  0.12350880  0.53859276  0.27974087    -0.05800
C435        C  0.16184520  0.53577589  0.25673117     0.00140
C436        C  0.19974467  0.57705476  0.23259642    -0.08330
C437        C  0.24072816  0.57460868  0.20559401     0.62050
H438        H  0.22712154  0.65286485  0.21514412     0.12740
H439        H  0.09497752  0.50644497  0.29803782     0.12750
C440        C  0.08145380  0.58446111  0.30847417     0.62280
F441        F  0.27164680  0.61763770  0.18093836    -0.22880
F442        F  0.22164831  0.53743893  0.16825638    -0.20210
F443        F  0.26771307  0.56584465  0.24188016    -0.19890
F444        F  0.05293850  0.59174956  0.27283493    -0.19940
F445        F  0.10097240  0.62234821  0.34498685    -0.20270
F446        F  0.05170484  0.54189175  0.33448694    -0.22940
C447        C  0.42710865  0.89368783  0.23252505    -0.05780
C448        C  0.38340661  0.85058220  0.24254692     0.00150
C449        C  0.38441862  0.80666241  0.24825727    -0.08420
C450        C  0.42950968  0.80840582  0.24724292    -0.05800
C451        C  0.47366863  0.85203760  0.24075461     0.00140
C452        C  0.47235502  0.89544463  0.23137384    -0.08330
C453        C  0.51808778  0.94388024  0.22156006     0.62050
H454        H  0.42586522  0.92675862  0.22737353     0.12740
H455        H  0.43048312  0.77521759  0.25267174     0.12750
C456        C  0.33853949  0.75784704  0.25594168     0.62280
F457        F  0.50799329  0.98095730  0.21376041    -0.22880
F458        F  0.54055478  0.94000883  0.17719050    -0.20210
F459        F  0.54962527  0.95718449  0.26415052    -0.19890
F460        F  0.30327231  0.75105844  0.21933487    -0.19940
F461        F  0.32151755  0.75637799  0.30576355    -0.20270
F462        F  0.34694581  0.71930069  0.25026652    -0.22940
C463        C  0.86643110  0.77810489  0.23741298    -0.05780
C464        C  0.87138048  0.82322541  0.25125127     0.00150
C465        C  0.91761237  0.86257709  0.26668694    -0.08420
C466        C  0.95796907  0.85586164  0.26458933    -0.05800
C467        C  0.95323374  0.81121149  0.24893940     0.00140
C468        C  0.90664601  0.77121322  0.23565987    -0.08330
C469        C  0.89898078  0.72197221  0.21783828     0.62050
H470        H  0.83059261  0.74831748  0.22656022     0.12740
H471        H  0.99399464  0.88596710  0.27440595     0.12750
C472        C  0.92492339  0.91138320  0.28547936     0.62280
F473        F  0.85248081  0.69194666  0.19765866    -0.22880
F474        F  0.90530117  0.69874865  0.25982322    -0.20210
F475        F  0.93144626  0.72770864  0.17914425    -0.19890
F476        F  0.88861178  0.90470352  0.31951533    -0.19940
F477        F  0.92440028  0.93768189  0.24324354    -0.20270
F478        F  0.96911378  0.93866339  0.31170334    -0.22940
C479        C  0.06540555  0.32933511  0.99823454    -0.05780
C480        C  0.04646351  0.33246629  0.04576337     0.00150
C481        C  0.99692087  0.32020938  0.04767158    -0.08420
C482        C  0.96761087  0.30111342  0.00166267    -0.05800
C483        C  0.98577999  0.29177236  0.95553952     0.00140
C484        C  0.03564002  0.30435647  0.95540132    -0.08330
C485        C  0.05979446  0.29119766  0.91274686     0.62050
H486        H  0.10411586  0.34244321  0.99622752     0.12740
H487        H  0.92994235  0.29214878  0.00184590     0.12750
C488        C  0.97506286  0.32697949  0.09725708     0.62280
F489        F  0.09784326  0.28632269  0.93250541    -0.22880
F490        F  0.07890092  0.32869645  0.87760323    -0.20210
F491        F  0.02771223  0.24688970  0.88907238    -0.19890
F492        F  0.00230752  0.37476977  0.11503838    -0.19940
F493        F  0.97450984  0.29616991  0.13521409    -0.20270
F494        F  0.92772401  0.31677313  0.08902195    -0.22940
C495        C  0.97771115  0.31325467  0.50790590    -0.05780
C496        C  0.98130660  0.28385874  0.54569876     0.00150
C497        C  0.01997113  0.27369469  0.54398405    -0.08420
C498        C  0.05185546  0.29068227  0.50167626    -0.05800
C499        C  0.04587271  0.31685028  0.46165243     0.00140
C500        C  0.00969808  0.33039028  0.46572292    -0.08330
C501        C  0.00455316  0.36277734  0.42613294     0.62050
H502        H  0.94844708  0.32126612  0.51064389     0.12740
H503        H  0.08026093  0.28152316  0.49812741     0.12750
C504        C  0.02737011  0.24466356  0.58609949     0.62280
F505        F  0.97687586  0.38182835  0.44532993    -0.22880
F506        F  0.98191349  0.33626104  0.38107659    -0.20210
F507        F  0.04984237  0.40141852  0.41425129    -0.19890
F508        F  0.98976488  0.19689814  0.58423036    -0.19940
F509        F  0.02888528  0.26491022  0.63465648    -0.20270
F510        F  0.07051625  0.24449502  0.58004994    -0.22940
C511        C  0.73963401  0.98456454  0.01209171    -0.05780
C512        C  0.69987139  0.97927879  0.04136930     0.00150
C513        C  0.67793910  0.00713462  0.02685683    -0.08420
C514        C  0.69839920  0.04069946  0.98580185    -0.05800
C515        C  0.73809106  0.04557700  0.95736585     0.00140
C516        C  0.75847788  0.01642051  0.96996925    -0.08330
C517        C  0.80005303  0.01888060  0.93875142     0.62050
H518        H  0.75617367  0.96312493  0.02209024     0.12740
H519        H  0.68279994  0.06282455  0.97480526     0.12750
C520        C  0.63271623  0.00145216  0.05283227     0.62280
F521        F  0.81748216  0.99061175  0.95992370    -0.22880
F522        F  0.83813335  0.06645119  0.93764188    -0.20210
F523        F  0.78416088  0.00214906  0.88824276    -0.19890
F524        F  0.64547839  0.02679257  0.10002501    -0.19940
F525        F  0.59954276  0.95280510  0.06063062    -0.20270
F526        F  0.60974275  0.01981646  0.02226296    -0.22940
C527        C  0.71830976  0.96078600  0.49918132    -0.05780
C528        C  0.69202053  0.96618488  0.45825439     0.00150
C529        C  0.67931041  0.00302583  0.46178350    -0.08420
C530        C  0.69522506  0.03466266  0.50577748    -0.05800
C531        C  0.72410811  0.03117916  0.54506008     0.00140
C532        C  0.73556935  0.99334819  0.54237349    -0.08330
C533        C  0.76679154  0.98786078  0.58408001     0.62050
H534        H  0.72738328  0.93227247  0.49566957     0.12740
H535        H  0.68699616  0.06379344  0.50876759     0.12750
C536        C  0.64907810  0.00902554  0.41943905     0.62280
F537        F  0.76851703  0.94551089  0.57669275    -0.22880
F538        F  0.74799884  0.98635033  0.63297379    -0.20210
F539        F  0.81395247  0.02657950  0.58261000    -0.19890
F540        F  0.60773074  0.96470043  0.40824655    -0.19940
F541        F  0.67611317  0.02638798  0.37472863    -0.20270
F542        F  0.63445920  0.04161089  0.43467650    -0.22940
C543        C  0.05626566  0.14227889  0.73751637    -0.05780
C544        C  0.05719217  0.18649823  0.74583618     0.00150
C545        C  0.10275343  0.22963924  0.75514861    -0.08420
C546        C  0.14500528  0.22628833  0.75744599    -0.05800
C547        C  0.14412502  0.18236786  0.74800537     0.00140
C548        C  0.09891523  0.13946889  0.73673173    -0.08330
C549        C  0.09499991  0.09087571  0.72325266     0.62050
H550        H  0.02157756  0.10950208  0.73063693     0.12740
H551        H  0.17964654  0.25891940  0.76486109     0.12750
C552        C  0.10785998  0.27942930  0.76169055     0.62280
F553        F  0.04725041  0.05372199  0.71783432    -0.22880
F554        F  0.11669823  0.07843550  0.76242678    -0.20210
F555        F  0.11718018  0.09383774  0.67612680    -0.19890
F556        F  0.08272148  0.27949309  0.80479414    -0.19940
F557        F  0.08959867  0.29018138  0.71796431    -0.20270
F558        F  0.15573740  0.31617658  0.76914242    -0.22940
C559        C  0.56795105  0.16683286  0.70226433    -0.05780
C560        C  0.54779531  0.16660621  0.75091576     0.00150
C561        C  0.57245098  0.16734579  0.79765084    -0.08420
C562        C  0.61714359  0.16899101  0.79393543    -0.05800
C563        C  0.63755083  0.16972009  0.74553808     0.00140
C564        C  0.61315813  0.16894445  0.69878256    -0.08330
C565        C  0.63571216  0.17200685  0.64596981     0.62050
H566        H  0.54835985  0.16614554  0.66711523     0.12740
H567        H  0.63668329  0.16963068  0.82909251     0.12750
C568        C  0.55145693  0.16526736  0.85133302     0.62280
F569        F  0.60737165  0.17357180  0.60549604    -0.22880
F570        F  0.64094961  0.13180258  0.63779516    -0.20210
F571        F  0.68097621  0.21375195  0.64452246    -0.19890
F572        F  0.50404955  0.12687766  0.85277922    -0.19940
F573        F  0.55239253  0.20845562  0.86226750    -0.20270
F574        F  0.57777589  0.15853226  0.89039671    -0.22940
C575        C  0.99166140  0.68307758  0.04720741    -0.05780
C576        C  0.04182944  0.70892085  0.03786936     0.00150
C577        C  0.05831639  0.71574569  0.98581257    -0.08420
C578        C  0.02375182  0.69851682  0.94443793    -0.05800
C579        C  0.97362732  0.67592096  0.95380404     0.00140
C580        C  0.95711656  0.66681674  0.00589375    -0.08330
C581        C  0.90321667  0.64048904  0.01771697     0.62050
H582        H  0.97967856  0.67821302  0.08727033     0.12740
H583        H  0.03582962  0.70511715  0.90442664     0.12750
C584        C  0.11226175  0.74144142  0.97425653     0.62280
F585        F  0.89478322  0.63018318  0.07024906    -0.22880
F586        F  0.87956510  0.59697984  0.98956636    -0.20210
F587        F  0.88362028  0.66903893  0.00410873    -0.19890
F588        F  0.13370138  0.71915851  0.00067750    -0.19940
F589        F  0.13424889  0.78976021  0.99020998    -0.20270
F590        F  0.12054425  0.73989494  0.92144050    -0.22940
C591        C  0.96779094  0.73184379  0.50050224    -0.05780
C592        C  0.97389545  0.70477085  0.53942781     0.00150
C593        C  0.01286194  0.69508185  0.53576879    -0.08420
C594        C  0.04513948  0.71413227  0.49366527    -0.05800
C595        C  0.03903149  0.74123714  0.45466734     0.00140
C596        C  0.99976953  0.75046790  0.45818085    -0.08330
C597        C  0.99141751  0.77995781  0.41765732     0.62050
H598        H  0.93777912  0.73866442  0.50377343     0.12740
H599        H  0.07495275  0.70703713  0.49021158     0.12750
C600        C  0.01930547  0.66305272  0.57478965     0.62280
F601        F  0.95798270  0.79291697  0.43395948    -0.22880
F602        F  0.97351457  0.75244791  0.37226607    -0.20210
F603        F  0.03452848  0.82228137  0.40772842    -0.19890
F604        F  0.97572664  0.61996109  0.58026633    -0.19940
F605        F  0.03439605  0.68697272  0.62271478    -0.20270
F606        F  0.05374412  0.65136932  0.55879967    -0.22940
C607        C  0.86692506  0.91275440  0.75249299    -0.05780
C608        C  0.82352812  0.87021770  0.76340443     0.00150
C609        C  0.78029371  0.87202347  0.77051297    -0.08420
C610        C  0.78231742  0.91696150  0.76535406    -0.05800
C611        C  0.82567197  0.95966139  0.75328542     0.00140
C612        C  0.86899946  0.95762130  0.74687967    -0.08330
C613        C  0.91757264  0.00200721  0.73447776     0.62050
H614        H  0.89932456  0.91020924  0.74720707     0.12740
H615        H  0.74939458  0.91862827  0.76972281     0.12750
C616        C  0.73243958  0.82732290  0.78463615     0.62280
F617        F  0.95501723  0.99185257  0.73633224    -0.22880
F618        F  0.92851925  0.03909942  0.77052882    -0.20210
F619        F  0.91586297  0.01733279  0.68459512    -0.19890
F620        F  0.73931515  0.80528583  0.82754276    -0.19940
F621        F  0.71490141  0.79467934  0.74277978    -0.20270
F622        F  0.69722407  0.83904712  0.79713219    -0.22940
C623        C  0.81690196  0.38533536  0.74851350    -0.05780
C624        C  0.86334941  0.39033979  0.74736198     0.00150
C625        C  0.90490198  0.43773004  0.74458964    -0.08420
C626        C  0.89775406  0.47769281  0.73984902    -0.05800
C627        C  0.85128323  0.47257694  0.73960329     0.00140
C628        C  0.80992811  0.42559923  0.74553582    -0.08510
C629        C  0.75861953  0.41707123  0.74991181     0.62050
H630        H  0.78556298  0.34907478  0.75148173     0.12740
H631        H  0.92903987  0.51379876  0.73573698     0.12750
C632        C  0.95684709  0.44753990  0.74780214     0.62280
F633        F  0.72732815  0.37199230  0.77058869    -0.22880
F634        F  0.74089237  0.41841929  0.70090421    -0.20210
F635        F  0.75815081  0.45195526  0.78243787    -0.19890
F636        F  0.96930797  0.43600659  0.70037836    -0.19940
F637        F  0.96176419  0.42077059  0.78708325    -0.20270
F638        F  0.98974043  0.49615012  0.75895382    -0.22940
C639        C  0.10638198  0.95956139  0.76594132    -0.05780
C640        C  0.14855470  0.95755216  0.75573034     0.00150
C641        C  0.14525445  0.91195931  0.74660180    -0.08420
C642        C  0.09922694  0.86973642  0.74779148    -0.05800
C643        C  0.05672936  0.87160851  0.75732344     0.00140
C644        C  0.06025273  0.91743509  0.76698960    -0.08330
C645        C  0.01602795  0.92266458  0.77726620     0.62050
H646        H  0.10998900  0.99486097  0.77305755     0.12740
H647        H  0.09636327  0.83468376  0.74153470     0.12750
C648        C  0.18954707  0.90764856  0.73391988     0.62280
F649        F  0.02783395  0.97093907  0.77939407    -0.22880
F650        F  0.99625278  0.90258317  0.82475301    -0.20210
F651        F  0.98161460  0.89960509  0.73768108    -0.19890
F652        F  0.22098150  0.92279952  0.77670471    -0.19940
F653        F  0.21313027  0.93602477  0.69150791    -0.20270
F654        F  0.17710525  0.86019017  0.72146956    -0.22940
C655        C  0.63086832  0.43231289  0.73674971    -0.05780
C656        C  0.62745826  0.47458956  0.74173977     0.00150
C657        C  0.58065598  0.47017329  0.74241074    -0.08420
C658        C  0.53949361  0.42340944  0.74258927    -0.05800
C659        C  0.54314002  0.38135638  0.73997238     0.00140
C660        C  0.58937453  0.38564902  0.73379552    -0.08330
C661        C  0.59682796  0.34281547  0.72226910     0.62050
H662        H  0.66652711  0.43584219  0.73411322     0.12740
H663        H  0.50380453  0.41943961  0.74675170     0.12750
C664        C  0.57268530  0.51348429  0.74296007     0.62280
F665        F  0.63163357  0.35522708  0.68427036    -0.22880
F666        F  0.55491306  0.30220883  0.70361419    -0.20210
F667        F  0.61284526  0.33108582  0.76717315    -0.19890
F668        F  0.60261387  0.54779920  0.70759985    -0.19940
F669        F  0.58150542  0.53382022  0.79273176    -0.20270
F670        F  0.52523810  0.49981763  0.72908803    -0.22940
C671        C  0.68341250  0.67105000  0.96552058    -0.05780
C672        C  0.73449175  0.69089071  0.96625208     0.00150
C673        C  0.76237376  0.72489051  0.00779704    -0.08420
C674        C  0.73815757  0.73818972  0.04406588    -0.05800
C675        C  0.68834344  0.72057937  0.04099897     0.00140
C676        C  0.65985851  0.68531793  0.00246421    -0.08330
C677        C  0.60515997  0.66357892  0.00058092     0.62050
H678        H  0.66191594  0.64477817  0.93502184     0.12740
H679        H  0.75831441  0.76396564  0.07547543     0.12750
C680        C  0.81724681  0.74905547  0.01549764     0.62280
F681        F  0.58353903  0.62973515  0.96008411    -0.22880
F682        F  0.59412542  0.70007654  0.99371317    -0.20210
F683        F  0.58571374  0.64060596  0.04707471    -0.19890
F684        F  0.84055152  0.77665376  0.97256485    -0.19940
F685        F  0.82962519  0.71383585  0.02437874    -0.20270
F686        F  0.83448954  0.78061493  0.05844504    -0.22940
C687        C  0.68699894  0.69115091  0.53616488    -0.05780
C688        C  0.73680679  0.70770859  0.54343585     0.00150
C689        C  0.77025807  0.73871112  0.50615202    -0.08420
C690        C  0.75263075  0.75249877  0.46274152    -0.05800
C691        C  0.70286073  0.73622168  0.45549705     0.00140
C692        C  0.66921190  0.70397594  0.49200746    -0.08330
C693        C  0.61476632  0.68119353  0.48283141     0.62050
H694        H  0.66195569  0.66719399  0.56498723     0.12740
H695        H  0.77774793  0.77622234  0.43383948     0.12750
C696        C  0.82444407  0.75802076  0.51301951     0.62280
F697        F  0.58836311  0.64723986  0.52024024    -0.22880
F698        F  0.60188441  0.65774805  0.43443126    -0.20210
F699        F  0.60203478  0.71684133  0.48444337    -0.19890
F700        F  0.83354009  0.71983687  0.51066766    -0.19940
F701        F  0.84039686  0.78190240  0.56095736    -0.20270
F702        F  0.85110912  0.79048187  0.47453387    -0.22940
loop_ 
_geom_bond_atom_site_label_1 
_geom_bond_atom_site_label_2 
_geom_bond_distance 
_geom_bond_site_symmetry_2 
_ccdc_geom_bond_type 
C1           N19   1.344       .  A
C1           C38   1.462       .  S
C1          C608   1.474       .  S
N2           N19   1.320       .  A
N2           N24   1.319       .  A
N2          Co39   2.055       .  S
C3           N28   1.344       .  A
C3           C41   1.467       .  S
C3           H48   1.081       .  S
H4           C45   1.081       .  S
C5           N29   1.350       .  A
C5            C9   1.472       .  S
C5           H34   1.081       .  S
Co6          N24   2.093       .  S
Co6          N14   2.068       .  S
Co6          N46   2.059       .  S
Co6          N22   2.080       .  S
Co6         Cl50   2.428       .  S
N7           C45   1.338   1_655  A
N7           N14   1.317       .  A
N7           Co8   2.078       .  S
Co8          N11   2.074       .  S
Co8          N28   2.085       .  S
Co8          N15   2.083       .  S
Co8         Cl50   2.456       .  S
C9           N47   1.343       .  A
C9          C592   1.488       .  S
N10          N17   1.322       .  A
N10          N40   1.328       .  A
N10         Co43   2.096       .  S
N11          N29   1.321       .  A
N11          N47   1.322       .  A
N12          C41   1.349       .  A
N12          N22   1.323       .  A
H13          C38   1.081       .  S
N14          N35   1.321       .  A
N15          N33   1.320       .  A
N15          N20   1.323       .  A
C16          N20   1.353       .  A
C16          C44   1.463       .  S
C16         C627   1.485       .  S
N17          C32   1.342       .  A
N17         Co39   2.099       .  S
C18          N46   1.327       .  A
C18          C21   1.464       .  S
C18          H52   1.068       .  S
C21          N42   1.366       .  A
C21         C672   1.512       .  S
N22          N28   1.317       .  A
N23          C49   1.335       .  A
N23          N25   1.320       .  A
N23         Co39   2.068       .  S
N24          C38   1.340       .  A
N25          N53   1.324       .  A
N25         Co43   2.098       .  S
H26          C49   1.076       .  S
H27          C44   1.078       .  S
N29         Co43   2.112       .  S
N30          N42   1.331       .  A
N30          N46   1.313       .  A
N30         Co39   2.109       .  S
C31          N35   1.347   1_455  A
C31          C45   1.465       .  S
C31         C643   1.483       .  S
C32          C51   1.458       .  S
C32          H36   1.081       .  S
N33          C44   1.340       .  A
N33         Co43   2.087       .  S
C37          N53   1.352       .  A
C37          C49   1.461       .  S
C37         C656   1.482       .  S
Co39        Cl50   2.463       .  S
N40          C51   1.353       .  A
C41         C579   1.484       .  S
Co43        Cl50   2.448       .  S
C51         C688   1.485       .  S
C54          N72   1.351       .  A
C54          C91   1.455       .  S
C54         C496   1.473       .  S
N55          N72   1.325       .  A
N55          N77   1.318       .  A
N55         Co92   2.081       .  S
C56          N81   1.339       .  A
C56          C94   1.465       .  S
C56         H101   1.081   1_545  S
H57          C98   1.082       .  S
C58          N82   1.336       .  A
C58          C62   1.457       .  S
C58          H87   1.082       .  S
Co59         N77   2.069       .  S
Co59         N67   2.064       .  S
Co59         N99   2.070       .  S
Co59         N75   2.077       .  S
Co59       Cl103   2.434       .  S
N60          C98   1.345       .  A
N60          N67   1.319       .  A
N60         Co61   2.093       .  S
Co61         N64   2.084       .  S
Co61         N81   2.074       .  S
Co61         N68   2.085       .  S
Co61       Cl103   2.455       .  S
C62         N100   1.351       .  A
C62         C563   1.469       .  S
N63          N70   1.319       .  A
N63          N93   1.324       .  A
N63         Co96   2.099       .  S
N64          N82   1.322       .  A
N64         N100   1.325       .  A
N65          C94   1.347       .  A
N65          N75   1.320       .  A
H66          C91   1.081       .  S
N67          N88   1.320       .  A
N68          N86   1.322       .  A
N68          N73   1.324       .  A
C69          N73   1.346       .  A
C69          C97   1.468       .  S
C69         C515   1.485       .  S
N70          C85   1.337       .  A
N70         Co92   2.066       .  S
C71          N99   1.336       .  A
C71          C74   1.462   1_655  S
C71         H105   1.080       .  S
C74          N95   1.350       .  A
C74         C544   1.489       .  S
N75          N81   1.318       .  A
N76         C102   1.325       .  A
N76          N78   1.318       .  A
N76         Co92   2.062       .  S
N77          C91   1.336       .  A
N78         N106   1.333       .  A
N78         Co96   2.111       .  S
H79         C102   1.075   1_455  S
H80          C97   1.081       .  S
N82         Co96   2.086       .  S
N83          N95   1.323   1_655  A
N83          N99   1.316       .  A
N83         Co92   2.079       .  S
C84          N88   1.344       .  A
C84          C98   1.466       .  S
C84         C531   1.476       .  S
C85         C104   1.462       .  S
C85          H89   1.077       .  S
N86          C97   1.349       .  A
N86         Co96   2.108       .  S
C90         N106   1.364       .  A
C90         C102   1.454       .  S
C90         C483   1.499       .  S
Co92       Cl103   2.445       .  S
N93         C104   1.353       .  A
C94         C611   1.484   1_545  S
Co96       Cl103   2.458       .  S
C104        C624   1.485       .  S
C107        N125   1.346       .  A
C107        C144   1.473       .  S
C107        C595   1.491       .  S
N108        N125   1.324       .  A
N108        N130   1.322       .  A
N108       Co145   2.084       .  S
C109        N134   1.345       .  A
C109        C147   1.470       .  S
C109        H154   1.082       .  S
H110        C151   1.081       .  S
C111        N135   1.340       .  A
C111        C115   1.458       .  S
C111        H140   1.082       .  S
Co112       N130   2.118       .  S
Co112       N120   2.093       .  S
Co112       N152   2.086       .  S
Co112       N128   2.099       .  S
Co112      Cl156   2.454       .  S
N113        C151   1.335       .  A
N113        N120   1.318       .  A
N113       Co114   2.076       .  S
Co114       N117   2.080       .  S
Co114       N134   2.101       .  S
Co114       N121   2.099       .  S
Co114      Cl156   2.462       .  S
C115        N153   1.349       .  A
C115        C416   1.467   1_565  S
N116        N123   1.315       .  A
N116        N146   1.323       .  A
N116       Co149   2.077       .  S
N117        N135   1.320       .  A
N117        N153   1.324       .  A
N118        C147   1.350       .  A
N118        N128   1.323       .  A
H119        C144   1.082       .  S
N120        N141   1.328       .  A
N121        N139   1.317       .  A
N121        N126   1.330       .  A
C122        N126   1.359       .  A
C122        C150   1.462       .  S
C122        C384   1.501       .  S
N123        C138   1.334       .  A
N123       Co145   2.059       .  S
C124        N152   1.340       .  A
C124        C127   1.456       .  S
C124        H158   1.080       .  S
C127        N148   1.349       .  A
C127        C432   1.474       .  S
N128        N134   1.323       .  A
N129        C155   1.343       .  A
N129        N131   1.320       .  A
N129       Co145   2.092       .  S
N130        C144   1.350       .  A
N131        N159   1.323       .  A
N131       Co149   2.085       .  S
H132        C155   1.082       .  S
H133        C150   1.072       .  S
N135       Co149   2.088       .  S
N136        N148   1.324       .  A
N136        N152   1.320       .  A
N136       Co145   2.077       .  S
C137        N141   1.356       .  A
C137        C151   1.461       .  S
C137        C400   1.497       .  S
C138        C157   1.455   1_455  S
C138        H142   1.076   1_455  S
N139        C150   1.335       .  A
N139       Co149   2.074       .  S
C143        N159   1.350       .  A
C143        C155   1.467       .  S
C143        C576   1.482       .  S
Co145      Cl156   2.457       .  S
N146        C157   1.350   1_455  A
C147        C448   1.495       .  S
Co149      Cl156   2.431       .  S
C157        C467   1.472       .  S
C160        N178   1.352       .  A
C160        C197   1.457       .  S
C160        C659   1.474       .  S
N161        N178   1.323       .  A
N161        N183   1.319       .  A
N161       Co198   2.079       .  S
C162        N187   1.337       .  A
C162        C200   1.452       .  S
C162        H207   1.082       .  S
H163        C204   1.081       .  S
C164        N188   1.333       .  A
C164        C168   1.454       .  S
C164        H193   1.082       .  S
Co165       N183   2.076       .  S
Co165       N173   2.085       .  S
Co165       N205   2.112       .  S
Co165       N181   2.099       .  S
Co165      Cl209   2.455       .  S
N166        C204   1.342       .  A
N166        N173   1.321       .  A
N166       Co167   2.079       .  S
Co167       N170   2.097       .  S
Co167       N187   2.085       .  S
Co167       N174   2.078       .  S
Co167      Cl209   2.454       .  S
C168        N206   1.355       .  A
C168        C403   1.475       .  S
N169        N176   1.317       .  A
N169        N199   1.322       .  A
N169       Co202   2.079       .  S
N170        N188   1.318       .  A
N170        N206   1.327       .  A
N171        C200   1.355       .  A
N171        N181   1.330       .  A
H172        C197   1.081       .  S
N173        N194   1.321       .  A
N174        N192   1.318       .  A
N174        N179   1.324       .  A
C175        N179   1.350       .  A
C175        C203   1.454       .  S
C175        C640   1.475   1_545  S
N176        C191   1.339       .  A
N176       Co198   2.069       .  S
C177        N205   1.350       .  A
C177        C180   1.482       .  S
C177        H211   1.081       .  S
C180        N201   1.342       .  A
C180        C368   1.504       .  S
N181        N187   1.322       .  A
N182        C208   1.337       .  A
N182        N184   1.316       .  A
N182       Co198   2.078       .  S
N183        C197   1.338       .  A
N184        N212   1.318       .  A
N184       Co202   2.056       .  S
H185        C208   1.077       .  S
H186        C203   1.081       .  S
N188       Co202   2.061       .  S
N189        N201   1.319       .  A
N189        N205   1.318       .  A
N189       Co198   2.067       .  S
C190        N194   1.346       .  A
C190        C204   1.460       .  S
C190        C560   1.472       .  S
C191        C210   1.461       .  S
C191        H195   1.079       .  S
N192        C203   1.336       .  A
N192       Co202   2.072       .  S
C196        N212   1.344       .  A
C196        C208   1.467       .  S
C196        C547   1.482       .  S
Co198      Cl209   2.442       .  S
N199        C210   1.350       .  A
C200        C387   1.476       .  S
Co202      Cl209   2.435       .  S
C210        C355   1.479       .  S
C213        N231   1.355       .  A
C213        C250   1.449       .  S
C213        C499   1.474       .  S
N214        N231   1.329       .  A
N214        N236   1.320       .  A
N214       Co251   2.101       .  S
C215        N240   1.330       .  A
C215        C253   1.466       .  S
C215        H260   1.081       .  S
H216        C257   1.078       .  S
C217        N241   1.342       .  A
C217        C221   1.459       .  S
C217        H246   1.079       .  S
Co218       N236   2.061       .  S
Co218       N226   2.084       .  S
Co218       N258   2.084       .  S
Co218       N234   2.068       .  S
Co218      Cl262   2.448       .  S
N219        C257   1.337       .  A
N219        N226   1.318       .  A
N219       Co220   2.074       .  S
Co220       N223   2.072       .  S
Co220       N240   2.080       .  S
Co220       N227   2.097       .  S
Co220      Cl262   2.444       .  S
C221        N259   1.346       .  A
C221        C419   1.471       .  S
N222        N229   1.318       .  A
N222        N252   1.319       .  A
N222       Co255   2.068       .  S
N223        N241   1.319       .  A
N223        N259   1.323       .  A
N224        C253   1.347       .  A
N224        N234   1.326       .  A
H225        C250   1.081       .  S
N226        N247   1.324       .  A
N227        N245   1.318       .  A
N227        N232   1.325       .  A
C228        N232   1.356       .  A
C228        C256   1.460       .  S
C228        C371   1.489       .  S
N229        C244   1.345       .  A
N229       Co251   2.098       .  S
C230        N258   1.340       .  A
C230        C233   1.458       .  S
C230        H264   1.082       .  S
C233        N254   1.349       .  A
C233        C435   1.474       .  S
N234        N240   1.319       .  A
N235        C261   1.341       .  A
N235        N237   1.320       .  A
N235       Co251   2.087       .  S
N236        C250   1.333       .  A
N237        N265   1.323       .  A
N237       Co255   2.076       .  S
H238        C261   1.081       .  S
H239        C256   1.079       .  S
N241       Co255   2.091       .  S
N242        N254   1.325       .  A
N242        N258   1.321       .  A
N242       Co251   2.091       .  S
C243        N247   1.353       .  A
C243        C257   1.458       .  S
C243        C320   1.479   1_455  S
C244        C263   1.476       .  S
C244        H248   1.081       .  S
N245        C256   1.339       .  A
N245       Co255   2.069       .  S
C249        N265   1.347       .  A
C249        C261   1.457       .  S
C249        C339   1.465       .  S
Co251      Cl262   2.458       .  S
N252        C263   1.344       .  A
C253        C480   1.484       .  S
Co255      Cl262   2.442       .  S
C263        C352   1.497       .  S
C266        N284   1.351       .  A
C266        C303   1.458       .  S
C266        C464   1.474       .  S
N267        N284   1.323       .  A
N267        N289   1.317       .  A
N267       Co304   2.078       .  S
C268        N293   1.347       .  A
C268        C306   1.477       .  S
C268        H313   1.076       .  S
H269        C310   1.077   1_545  S
C270        N294   1.345       .  A
C270        C274   1.463       .  S
C270        H299   1.082       .  S
Co271       N289   2.073       .  S
Co271       N279   2.091       .  S
Co271       N311   2.089       .  S
Co271       N287   2.074       .  S
Co271      Cl315   2.442       .  S
N272        C310   1.337       .  A
N272        N279   1.318       .  A
N272       Co273   2.073       .  S
Co273       N276   2.080       .  S
Co273       N293   2.101       .  S
Co273       N280   2.085       .  S
Co273      Cl315   2.448       .  S
C274        N312   1.345       .  A
C274        C528   1.478       .  S
N275        N282   1.321       .  A
N275        N305   1.331       .  A
N275       Co308   2.112       .  S
N276        N294   1.320       .  A
N276        N312   1.322       .  A
N277        C306   1.352       .  A
N277        N287   1.321       .  A
H278        C303   1.079       .  S
N279        N300   1.325       .  A
N280        N298   1.321       .  A
N280        N285   1.324       .  A
C281        N285   1.351       .  A
C281        C309   1.467       .  S
C281        C451   1.497       .  S
N282        C297   1.339       .  A
N282       Co304   2.080       .  S
C283        N311   1.338       .  A
C283        C286   1.469       .  S
C283        H317   1.082       .  S
C286        N307   1.354       .  A
C286        C675   1.478       .  S
N287        N293   1.317       .  A
N288        C314   1.341       .  A
N288        N290   1.320       .  A
N288       Co304   2.079       .  S
N289        C303   1.338       .  A
N290        N318   1.323       .  A
N290       Co308   2.082       .  S
H291        C314   1.081       .  S
H292        C309   1.082       .  S
N294       Co308   2.087       .  S
N295        N307   1.326       .  A
N295        N311   1.317       .  A
N295       Co304   2.086       .  S
C296        N300   1.353   1_545  A
C296        C310   1.461   1_545  S
C296        C323   1.482       .  S
C297        C316   1.454       .  S
C297        H301   1.082       .  S
N298        C309   1.340       .  A
N298       Co308   2.099       .  S
C302        N318   1.348       .  A
C302        C314   1.458       .  S
C302        C336   1.467       .  S
Co304      Cl315   2.452       .  S
N305        C316   1.357       .  A
C306        C512   1.507       .  S
Co308      Cl315   2.454       .  S
C316        C691   1.488       .  S
C319        H326   1.083       .  S
C319        C320   1.400       .  A
C319        C324   1.404       .  A
C320        C321   1.419       .  A
C321        C322   1.408       .  A
C321        C328   1.520   1_655  S
C322        H327   1.083       .  S
C322        C323   1.404       .  A
C323        C324   1.422       .  A
C324        C325   1.521       .  S
C325        F329   1.385       .  S
C325        F330   1.381       .  S
C325        F331   1.383       .  S
C328        F332   1.384       .  S
C328        F333   1.381       .  S
C328        F334   1.384   1_455  S
C335        H342   1.085       .  S
C335        C336   1.400       .  A
C335        C340   1.405       .  A
C336        C337   1.414       .  A
C337        C338   1.403       .  A
C337        C344   1.519       .  S
C338        H343   1.083       .  S
C338        C339   1.400       .  A
C339        C340   1.418       .  A
C340        C341   1.519       .  S
C341        F345   1.383       .  S
C341        F346   1.382       .  S
C341        F347   1.383       .  S
C344        F348   1.382       .  S
C344        F349   1.383       .  S
C344        F350   1.384       .  S
C351        H358   1.080       .  S
C351        C352   1.406       .  A
C351        C356   1.408       .  A
C352        C353   1.430       .  A
C353        C354   1.405       .  A
C353        C360   1.521       .  S
C354        H359   1.083       .  S
C354        C355   1.395       .  A
C355        C356   1.421       .  A
C356        C357   1.521       .  S
C357        F361   1.385       .  S
C357        F362   1.381       .  S
C357        F363   1.383       .  S
C360        F364   1.383       .  S
C360        F365   1.382       .  S
C360        F366   1.385       .  S
C367        H374   1.080       .  S
C367        C368   1.404   1_554  A
C367        C372   1.412       .  A
C368        C369   1.433       .  A
C369        C370   1.406       .  A
C369        C376   1.519       .  S
C370        H375   1.083       .  S
C370        C371   1.394   1_556  A
C371        C372   1.424       .  A
C372        C373   1.518       .  S
C373        F377   1.385       .  S
C373        F378   1.379       .  S
C373        F379   1.382       .  S
C376        F380   1.380       .  S
C376        F381   1.384       .  S
C376        F382   1.385       .  S
C383        H390   1.083       .  S
C383        C384   1.410       .  A
C383        C388   1.414   1_564  A
C384        C385   1.433       .  A
C385        C386   1.405   1_564  A
C385        C392   1.521       .  S
C386        H391   1.084       .  S
C386        C387   1.393       .  A
C387        C388   1.412       .  A
C388        C389   1.516       .  S
C389        F393   1.384   1_556  S
C389        F394   1.383       .  S
C389        F395   1.383       .  S
C392        F396   1.383       .  S
C392        F397   1.382   1_554  S
C392        F398   1.385   1_565  S
C399        H406   1.079       .  S
C399        C400   1.411   1_545  A
C399        C404   1.404       .  A
C400        C401   1.423       .  A
C401        C402   1.412       .  A
C401        C408   1.519       .  S
C402        H407   1.083       .  S
C402        C403   1.403   1_565  A
C403        C404   1.410       .  A
C404        C405   1.521       .  S
C405        F409   1.384       .  S
C405        F410   1.383       .  S
C405        F411   1.382       .  S
C408        F412   1.383       .  S
C408        F413   1.383       .  S
C408        F414   1.385       .  S
C415        H422   1.083       .  S
C415        C416   1.398       .  A
C415        C420   1.402       .  A
C416        C417   1.412       .  A
C417        C418   1.408       .  A
C417        C424   1.516       .  S
C418        H423   1.083       .  S
C418        C419   1.402       .  A
C419        C420   1.415       .  A
C420        C421   1.514       .  S
C421        F425   1.385       .  S
C421        F426   1.379       .  S
C421        F427   1.383       .  S
C424        F428   1.383       .  S
C424        F429   1.383   1_545  S
C424        F430   1.385       .  S
C431        H438   1.084       .  S
C431        C432   1.401       .  A
C431        C436   1.407       .  A
C432        C433   1.417       .  A
C433        C434   1.406       .  A
C433        C440   1.519       .  S
C434        H439   1.084       .  S
C434        C435   1.401       .  A
C435        C436   1.414       .  A
C436        C437   1.516       .  S
C437        F441   1.385       .  S
C437        F442   1.384       .  S
C437        F443   1.382       .  S
C440        F444   1.382       .  S
C440        F445   1.384       .  S
C440        F446   1.385       .  S
C447        H454   1.081       .  S
C447        C448   1.405       .  A
C447        C452   1.412       .  A
C448        C449   1.422       .  A
C449        C450   1.407       .  A
C449        C456   1.520       .  S
C450        H455   1.081       .  S
C450        C451   1.405       .  A
C451        C452   1.424       .  A
C452        C453   1.521       .  S
C453        F457   1.385       .  S
C453        F458   1.384       .  S
C453        F459   1.383       .  S
C456        F460   1.384       .  S
C456        F461   1.382       .  S
C456        F462   1.385       .  S
C463        H470   1.084       .  S
C463        C464   1.401       .  A
C463        C468   1.403       .  A
C464        C465   1.417       .  A
C465        C466   1.404       .  A
C465        C472   1.518       .  S
C466        H471   1.085       .  S
C466        C467   1.402       .  A
C467        C468   1.418       .  A
C468        C469   1.520       .  S
C469        F473   1.385       .  S
C469        F474   1.381       .  S
C469        F475   1.383       .  S
C472        F476   1.383       .  S
C472        F477   1.380       .  S
C472        F478   1.385       .  S
C479        H486   1.085       .  S
C479        C480   1.387   1_556  A
C479        C484   1.389       .  A
C480        C481   1.422   1_455  A
C481        C482   1.420       .  A
C481        C488   1.516       .  S
C482        H487   1.083       .  S
C482        C483   1.411   1_554  A
C483        C484   1.427   1_655  A
C484        C485   1.511       .  S
C485        F489   1.387       .  S
C485        F490   1.382       .  S
C485        F491   1.382       .  S
C488        F492   1.384   1_655  S
C488        F493   1.383       .  S
C488        F494   1.385       .  S
C495        H502   1.084       .  S
C495        C496   1.397       .  A
C495        C500   1.405   1_655  A
C496        C497   1.421   1_655  A
C497        C498   1.406       .  A
C497        C504   1.520       .  S
C498        H503   1.084       .  S
C498        C499   1.398       .  A
C499        C500   1.421       .  A
C500        C501   1.519       .  S
C501        F505   1.385   1_455  S
C501        F506   1.381   1_455  S
C501        F507   1.383       .  S
C504        F508   1.381   1_455  S
C504        F509   1.381       .  S
C504        F510   1.385       .  S
C511        H518   1.081       .  S
C511        C512   1.413       .  A
C511        C516   1.406   1_564  A
C512        C513   1.426   1_565  A
C513        C514   1.418   1_554  A
C513        C520   1.517       .  S
C514        H519   1.083       .  S
C514        C515   1.403       .  A
C515        C516   1.411       .  A
C516        C517   1.520       .  S
C517        F521   1.384   1_545  S
C517        F522   1.383       .  S
C517        F523   1.381       .  S
C520        F524   1.381       .  S
C520        F525   1.384   1_545  S
C520        F526   1.385       .  S
C527        H534   1.083       .  S
C527        C528   1.400       .  A
C527        C532   1.407       .  A
C528        C529   1.420   1_565  A
C529        C530   1.408       .  A
C529        C536   1.519       .  S
C530        H535   1.083       .  S
C530        C531   1.398       .  A
C531        C532   1.422   1_545  A
C532        C533   1.522       .  S
C533        F537   1.385       .  S
C533        F538   1.383       .  S
C533        F539   1.382   1_565  S
C536        F540   1.384   1_545  S
C536        F541   1.382       .  S
C536        F542   1.385       .  S
C543        H550   1.081       .  S
C543        C544   1.404       .  A
C543        C548   1.404       .  A
C544        C545   1.422       .  A
C545        C546   1.401       .  A
C545        C552   1.514       .  S
C546        H551   1.080       .  S
C546        C547   1.399       .  A
C547        C548   1.421       .  A
C548        C549   1.520       .  S
C549        F553   1.381       .  S
C549        F554   1.382       .  S
C549        F555   1.383       .  S
C552        F556   1.369       .  S
C552        F557   1.380       .  S
C552        F558   1.385       .  S
C559        H566   1.083       .  S
C559        C560   1.404       .  A
C559        C564   1.409       .  A
C560        C561   1.418       .  A
C561        C562   1.400       .  A
C561        C568   1.521       .  S
C562        H567   1.083       .  S
C562        C563   1.399       .  A
C563        C564   1.413       .  A
C564        C565   1.517       .  S
C565        F569   1.385       .  S
C565        F570   1.382       .  S
C565        F571   1.384       .  S
C568        F572   1.384       .  S
C568        F573   1.382       .  S
C568        F574   1.384       .  S
C575        H582   1.083       .  S
C575        C576   1.404   1_655  A
C575        C580   1.409       .  A
C576        C577   1.415   1_554  A
C577        C578   1.410       .  A
C577        C584   1.518       .  S
C578        H583   1.083       .  S
C578        C579   1.405   1_455  A
C579        C580   1.417   1_556  A
C580        C581   1.518       .  S
C581        F585   1.384       .  S
C581        F586   1.383   1_554  S
C581        F587   1.381       .  S
C584        F588   1.383   1_556  S
C584        F589   1.382       .  S
C584        F590   1.384       .  S
C591        H598   1.083       .  S
C591        C592   1.399       .  A
C591        C596   1.410       .  A
C592        C593   1.423   1_655  A
C593        C594   1.412       .  A
C593        C600   1.520       .  S
C594        H599   1.083       .  S
C594        C595   1.401       .  A
C595        C596   1.422   1_455  A
C596        C597   1.515       .  S
C597        F601   1.385       .  S
C597        F602   1.378       .  S
C597        F603   1.383   1_655  S
C600        F604   1.384   1_455  S
C600        F605   1.382       .  S
C600        F606   1.385       .  S
C607        H614   1.083       .  S
C607        C608   1.397       .  A
C607        C612   1.403       .  A
C608        C609   1.418       .  A
C609        C610   1.405       .  A
C609        C616   1.521       .  S
C610        H615   1.081       .  S
C610        C611   1.405       .  A
C611        C612   1.422       .  A
C612        C613   1.518   1_565  S
C613        F617   1.382   1_545  S
C613        F618   1.383       .  S
C613        F619   1.383       .  S
C616        F620   1.384       .  S
C616        F621   1.383       .  S
C616        F622   1.385       .  S
C623        H630   1.084       .  S
C623        C624   1.404       .  A
C623        C628   1.407       .  A
C624        C625   1.422       .  A
C625        C626   1.405       .  A
C625        C632   1.520       .  S
C626        H631   1.084       .  S
C626        C627   1.403       .  A
C627        C628   1.420       .  A
C628        C629   1.519       .  S
C629        F633   1.385       .  S
C629        F634   1.380       .  S
C629        F635   1.383       .  S
C632        F636   1.381       .  S
C632        F637   1.383       .  S
C632        F638   1.385       .  S
C639        H646   1.081       .  S
C639        C640   1.401       .  A
C639        C644   1.404       .  A
C640        C641   1.415       .  A
C641        C642   1.404       .  A
C641        C648   1.520       .  S
C642        H647   1.081       .  S
C642        C643   1.406       .  A
C643        C644   1.421       .  A
C644        C645   1.522       .  S
C645        F649   1.384       .  S
C645        F650   1.382   1_455  S
C645        F651   1.383   1_455  S
C648        F652   1.383       .  S
C648        F653   1.384       .  S
C648        F654   1.385       .  S
C655        H662   1.085       .  S
C655        C656   1.405       .  A
C655        C660   1.405       .  A
C656        C657   1.423       .  A
C657        C658   1.402       .  A
C657        C664   1.520       .  S
C658        H663   1.083       .  S
C658        C659   1.399       .  A
C659        C660   1.417       .  A
C660        C661   1.520       .  S
C661        F665   1.385       .  S
C661        F666   1.383       .  S
C661        F667   1.382       .  S
C664        F668   1.383       .  S
C664        F669   1.381       .  S
C664        F670   1.385       .  S
C671        H678   1.083       .  S
C671        C672   1.416       .  A
C671        C676   1.415   1_556  A
C672        C673   1.439   1_556  A
C673        C674   1.401       .  A
C673        C680   1.522       .  S
C674        H679   1.083       .  S
C674        C675   1.391       .  A
C675        C676   1.408       .  A
C676        C677   1.515       .  S
C677        F681   1.384   1_554  S
C677        F682   1.383   1_554  S
C677        F683   1.383       .  S
C680        F684   1.383   1_554  S
C680        F685   1.381       .  S
C680        F686   1.386       .  S
C687        H694   1.084       .  S
C687        C688   1.405       .  A
C687        C692   1.413       .  A
C688        C689   1.415       .  A
C689        C690   1.411       .  A
C689        C696   1.518       .  S
C690        H695   1.083       .  S
C690        C691   1.406       .  A
C691        C692   1.418       .  A
C692        C693   1.518       .  S
C693        F697   1.385       .  S
C693        F698   1.384       .  S
C693        F699   1.382       .  S
C696        F700   1.382       .  S
C696        F701   1.384       .  S
C696        F702   1.384       .  S
