geometry optimzed in LAMMPS
_audit_creation_date              2020-11-30 
_audit_creation_method            'lammps2cif' 
_symmetry_space_group_name_H-M    'P1' 
_symmetry_Int_Tables_number       1 
_symmetry_cell_setting            triclinic 
loop_ 
_symmetry_equiv_pos_as_xyz 
  x,y,z 
_cell_length_a                    83.06735219 
_cell_length_b                    37.782364487466474 
_cell_length_c                    51.889988959483645 
_cell_angle_alpha                 89.69776784311757 
_cell_angle_beta                  89.79830127080963 
_cell_angle_gamma                 90.04996698829527 
loop_ 
_atom_site_label 
_atom_site_type_symbol 
_atom_site_fract_x 
_atom_site_fract_y 
_atom_site_fract_z 
_atom_site_charge 
N1          N  0.41893043  0.59828364  0.03239898    -0.02900
C2          C  0.43495418  0.60516209  0.03147324    -0.00400
C3          C  0.43836284  0.62884643  0.01181806    -0.23200
C4          C  0.42398629  0.63693730  0.00028047    -0.23400
C5          C  0.41227093  0.61756605  0.01305033    -0.00500
H6          H  0.45006082  0.63940104  0.00663841     0.13300
H7          H  0.42221210  0.65571503  0.98474044     0.13400
N8          N  0.55335663  0.58153439  0.09706084    -0.02900
C9          C  0.53855621  0.58741376  0.10732309    -0.00400
C10         C  0.53781398  0.62157059  0.11684594    -0.23200
C11         C  0.55248262  0.63711445  0.11196320    -0.23400
C12         C  0.56173781  0.61207491  0.09956717    -0.00500
H13         H  0.52720937  0.63511874  0.12386400     0.13300
H14         H  0.55550385  0.66467426  0.11481573     0.13400
N15         N  0.17420787  0.84763645  0.60925795    -0.26800
N16         N  0.16436209  0.83461469  0.59180671    -0.34600
C17         C  0.16450327  0.85613970  0.57101186     0.01600
C18         C  0.17517093  0.88378568  0.57559718     0.07600
C19         C  0.18102306  0.87728971  0.60010106    -0.05500
H20         H  0.15674466  0.85285632  0.55451738     0.08300
H21         H  0.18921737  0.89363921  0.61100021     0.09500
Cu22       Cu  0.15100808  0.78896630  0.59874083     0.44200
Cu23       Cu  0.17672187  0.82740410  0.64585916     0.42000
Cu24       Cu  0.15652107  0.74749035  0.66339597     0.43900
N25         N  0.14011859  0.74217279  0.61102234    -0.34100
N26         N  0.14192083  0.72728922  0.63402250    -0.28400
C27         C  0.13310388  0.69730001  0.63490637    -0.04500
C28         C  0.12566159  0.69284166  0.61128351     0.07700
C29         C  0.13028054  0.72194129  0.59676943     0.01500
H30         H  0.13240588  0.67966510  0.65136828     0.09200
H31         H  0.12672013  0.72805142  0.57719954     0.08200
N32         N  0.17112197  0.77558998  0.68903202    -0.35600
N33         N  0.17807644  0.80567368  0.68218331    -0.27800
C34         C  0.18588613  0.81931722  0.70240626    -0.03000
C35         C  0.18403401  0.79664012  0.72313570     0.05600
C36         C  0.17457100  0.76905942  0.71402901     0.03700
H37         H  0.19246594  0.84404815  0.70204008     0.08800
H38         H  0.17013909  0.74655142  0.72492368     0.07600
N39         N  0.19389590  0.16787215  0.46689855    -0.26800
N40         N  0.18318308  0.17840538  0.48414904    -0.34600
C41         C  0.17803439  0.15013347  0.49768190     0.01600
C42         C  0.18574739  0.12033350  0.48837058     0.07600
C43         C  0.19586169  0.13266833  0.46908345    -0.05500
H44         H  0.16947735  0.15134510  0.51346599     0.08300
H45         H  0.20398597  0.11714177  0.45735450     0.09500
Cu46       Cu  0.17573227  0.23051085  0.48833809     0.44200
Cu47       Cu  0.20518891  0.20141137  0.44076646     0.42000
Cu48       Cu  0.19279797  0.29297024  0.44306418     0.43900
N49         N  0.16909378  0.28344723  0.48660138    -0.34100
N50         N  0.17522943  0.30618077  0.46978541    -0.28400
C51         C  0.16764098  0.33742067  0.47220766    -0.04500
C52         C  0.15630504  0.33443015  0.49172080     0.07700
C53         C  0.15748692  0.29970972  0.50025459     0.01500
H54         H  0.16991524  0.36038205  0.46016934     0.09200
H55         H  0.14990802  0.28666796  0.51441132     0.08200
N56         N  0.20950254  0.27360638  0.41696320    -0.35600
N57         N  0.21400919  0.24010271  0.41598903    -0.27800
C58         C  0.22429797  0.23595338  0.39616319    -0.03000
C59         C  0.22650766  0.26849979  0.38423482     0.05600
C60         C  0.21681258  0.29166138  0.39783768     0.03700
H61         H  0.22956884  0.21094612  0.39055341     0.08800
H62         H  0.21465187  0.31927547  0.39353031     0.07600
N63         N  0.30761284  0.24988894  0.11167859    -0.26800
N64         N  0.31720019  0.26442955  0.09426966    -0.34600
C65         C  0.31821043  0.24269064  0.07386899     0.01600
C66         C  0.30865280  0.21322684  0.07874261     0.07600
C67         C  0.30234043  0.21862692  0.10306525    -0.05500
H68         H  0.32557167  0.24762953  0.05697058     0.08300
H69         H  0.29500829  0.20052780  0.11432157     0.09500
Cu70       Cu  0.32877621  0.31207288  0.10083630     0.44200
Cu71       Cu  0.30259081  0.27200889  0.14679175     0.42000
Cu72       Cu  0.31834384  0.35685844  0.16241754     0.43900
N73         N  0.33809414  0.36002156  0.11298908    -0.34100
N74         N  0.33408652  0.37664636  0.13449043    -0.28400
C75         C  0.34221824  0.40744832  0.13550982    -0.04500
C76         C  0.35178651  0.41011169  0.11372199     0.07700
C77         C  0.34896519  0.37956232  0.10001134     0.01500
H78         H  0.34139765  0.42620924  0.15112596     0.09200
H79         H  0.35427281  0.37225931  0.08173090     0.08200
N80         N  0.30366022  0.32797213  0.18745442    -0.35600
N81         N  0.29827260  0.29619036  0.18141019    -0.27800
C82         C  0.28972129  0.28287422  0.20115423    -0.03000
C83         C  0.28969387  0.30737652  0.22072300     0.05600
C84         C  0.29848074  0.33593627  0.21138692     0.03700
H85         H  0.28382649  0.25732634  0.20114665     0.08800
H86         H  0.30108961  0.36036094  0.22135365     0.07600
N87         N  0.28844362  0.93856797  0.96141148    -0.26800
N88         N  0.29927054  0.92445628  0.97698955    -0.34600
C89         C  0.30576614  0.95025850  0.99141485     0.01600
C90         C  0.29883748  0.98225877  0.98441369     0.07600
C91         C  0.28778871  0.97366663  0.96549830    -0.05500
H92         H  0.31474454  0.94598699  0.00617655     0.08300
H93         H  0.27941116  0.99139469  0.95604195     0.09500
Cu94       Cu  0.30415065  0.87045250  0.97839527     0.44200
Cu95       Cu  0.27455604  0.90899347  0.93619791     0.42000
Cu96       Cu  0.27863339  0.81320242  0.94042709     0.43900
N97         N  0.30691290  0.81577529  0.97622862    -0.34100
N98         N  0.29755193  0.79482888  0.96251708    -0.28400
C99         C  0.30332381  0.76157078  0.96356932    -0.04500
C100        C  0.31693636  0.76141409  0.97891367     0.07700
C101        C  0.31884160  0.79633673  0.98647001     0.01500
H102        H  0.29854590  0.73975378  0.95257674     0.09200
H103        H  0.32857237  0.80711334  0.99780281     0.08200
N104        N  0.26309070  0.83881232  0.91553433    -0.35600
N105        N  0.26196830  0.87361023  0.91327546    -0.27800
C106        C  0.25192795  0.88135447  0.89374580    -0.03000
C107        C  0.24652938  0.84990035  0.88326472     0.05600
C108        C  0.25371355  0.82353293  0.89772125     0.03700
H109        H  0.24889085  0.90789740  0.88753896     0.08800
H110        H  0.25268318  0.79526673  0.89485791     0.07600
N111        N  0.05230943  0.50668242  0.54066980    -0.02900
C112        C  0.03624786  0.50749236  0.53572247    -0.00400
C113        C  0.03232025  0.48268399  0.51732265    -0.21000
C114        C  0.04634788  0.46611983  0.51049227    -0.23400
C115        C  0.05846034  0.48136960  0.52484271    -0.00500
H116        H  0.02035572  0.47590796  0.51076868     0.13300
H117        H  0.04751706  0.44412668  0.49732884     0.13400
N118        N  0.91186371  0.48896334  0.55880689    -0.02900
C119        C  0.92803072  0.48367559  0.55922993    -0.00400
C120        C  0.93141513  0.44846370  0.55434009    -0.23200
C121        C  0.91692262  0.43154688  0.55104232    -0.23400
C122        C  0.90517295  0.45696915  0.55400760    -0.00500
H123        H  0.94322631  0.43668439  0.55235756     0.13300
H124        H  0.91515833  0.40405177  0.54600952     0.13400
N125        N  0.67206251  0.22096463  0.10865949    -0.26800
N126        N  0.66565248  0.23701633  0.08846370    -0.34600
C127        C  0.66613849  0.21490231  0.06818578     0.01600
C128        C  0.67296845  0.18311835  0.07609259     0.07600
C129        C  0.67663286  0.18824733  0.10184525    -0.05500
H130        H  0.66205902  0.22190348  0.04905026     0.08300
H131        H  0.68215674  0.16938683  0.11483486     0.09500
Cu132      Cu  0.65585425  0.28758740  0.09007305     0.44200
Cu133      Cu  0.67466273  0.24362721  0.14478268     0.42000
Cu134      Cu  0.65739613  0.32934151  0.15356661     0.43900
N135        N  0.64478147  0.33538018  0.09887452    -0.34100
N136        N  0.64554881  0.35061104  0.12175189    -0.28400
C137        C  0.63634333  0.37986726  0.12150628    -0.04500
C138        C  0.62920866  0.38293387  0.09754289     0.07700
C139        C  0.63492892  0.35441907  0.08360324     0.01500
H140        H  0.63434689  0.39674353  0.13798919     0.09200
H141        H  0.63185461  0.34748491  0.06401767     0.08200
N142        N  0.66886090  0.30166271  0.18304721    -0.35600
N143        N  0.67560941  0.27044475  0.17957425    -0.27800
C144        C  0.68249574  0.25986840  0.20174494    -0.03000
C145        C  0.67960360  0.28521039  0.22056521     0.05600
C146        C  0.67102208  0.31147712  0.20767858     0.03700
H147        H  0.68952420  0.23598349  0.20346096     0.08800
H148        H  0.66660869  0.33607072  0.21560625     0.07600
N149        N  0.69170559  0.89493880  0.97083597    -0.26800
N150        N  0.68185649  0.88589853  0.98980055    -0.34600
C151        C  0.67849126  0.91465630  0.00391429     0.01600
C152        C  0.68654727  0.94358349  0.99346445     0.07600
C153        C  0.69494032  0.92981484  0.97254944    -0.05500
H154        H  0.67070010  0.91445512  0.02070048     0.08300
H155        H  0.70321715  0.94372215  0.95989054     0.09500
Cu156      Cu  0.67377941  0.83461191  0.99601492     0.44200
Cu157      Cu  0.69996204  0.85833130  0.94391230     0.42000
Cu158      Cu  0.68661007  0.76580357  0.95236095     0.43900
N159        N  0.66671876  0.78214001  0.99945478    -0.34100
N160        N  0.67150717  0.75651507  0.98400218    -0.28400
C161        C  0.66410675  0.72620003  0.99120281    -0.04500
C162        C  0.65424809  0.73308479  0.01232268     0.07700
C163        C  0.65612090  0.76902916  0.01662342     0.01500
H164        H  0.66546700  0.70121387  0.98136456     0.09200
H165        H  0.64963639  0.78510764  0.03030526     0.08200
N166        N  0.70026697  0.78427097  0.92111606    -0.35600
N167        N  0.70527866  0.81733585  0.91846105    -0.27800
C168        C  0.71327586  0.82048549  0.89597915    -0.03000
C169        C  0.71335564  0.78796618  0.88358350     0.05600
C170        C  0.70480645  0.76576982  0.90016893     0.03700
H171        H  0.71840016  0.84501935  0.88893397     0.08800
H172        H  0.70134366  0.73861925  0.89685655     0.07600
N173        N  0.79012635  0.84569358  0.61017948    -0.26800
N174        N  0.80286192  0.83687465  0.59621804    -0.34600
C175        C  0.80639355  0.86405941  0.58009476     0.01600
C176        C  0.79530150  0.89100908  0.58417568     0.07600
C177        C  0.78518645  0.87819719  0.60323941    -0.05500
H178        H  0.81590136  0.86369381  0.56577331     0.08300
H179        H  0.77477637  0.89143567  0.61126120     0.09500
Cu180      Cu  0.81385847  0.78686107  0.59917766     0.44200
Cu181      Cu  0.77961219  0.81408918  0.63840472     0.42000
Cu182      Cu  0.79664383  0.72858531  0.64904343     0.43900
N183        N  0.82137371  0.73447728  0.60602587    -0.34100
N184        N  0.81480872  0.71337479  0.62361553    -0.28400
C185        C  0.82221535  0.68168589  0.62296967    -0.04500
C186        C  0.83401689  0.68255768  0.60403485     0.07700
C187        C  0.83322810  0.71662217  0.59392308     0.01500
H188        H  0.81949680  0.65992823  0.63592900     0.09200
H189        H  0.84073374  0.72758090  0.57877194     0.08200
N190        N  0.77953744  0.75067915  0.67360454    -0.35600
N191        N  0.77289834  0.78186694  0.66911099    -0.27800
C192        C  0.76280443  0.78970818  0.68858879    -0.03000
C193        C  0.76309136  0.76216386  0.70629731     0.05600
C194        C  0.77397935  0.73803151  0.69629050     0.03700
H195        H  0.75632919  0.81443102  0.69036205     0.08800
H196        H  0.77780592  0.71343437  0.70509559     0.07600
N197        N  0.76311119  0.17342215  0.47674903    -0.26800
N198        N  0.77322325  0.18508366  0.49439453    -0.34600
C199        C  0.77849547  0.15772238  0.50863806     0.01600
C200        C  0.77159035  0.12691197  0.49957566     0.07600
C201        C  0.76177200  0.13792274  0.47935636    -0.05500
H202        H  0.78703884  0.16002079  0.52425278     0.08300
H203        H  0.75407751  0.12146540  0.46761856     0.09500
Cu204      Cu  0.78046686  0.23723502  0.49762046     0.44200
Cu205      Cu  0.75224790  0.20798443  0.45019060     0.42000
Cu206      Cu  0.76609742  0.30160757  0.45278713     0.43900
N207        N  0.78927664  0.28838860  0.49582403    -0.34100
N208        N  0.78418387  0.31234456  0.47913808    -0.28400
C209        C  0.79316490  0.34183103  0.48158511    -0.04500
C210        C  0.80436666  0.33622923  0.50099011     0.07700
C211        C  0.80156142  0.30188647  0.50935005     0.01500
H212        H  0.79209145  0.36490940  0.46928759     0.09200
H213        H  0.80823557  0.28737272  0.52383064     0.08200
N214        N  0.74923587  0.28227499  0.42694623    -0.35600
N215        N  0.74426983  0.24897796  0.42590957    -0.27800
C216        C  0.73382563  0.24589731  0.40625746    -0.03000
C217        C  0.73227505  0.27854154  0.39416755     0.05600
C218        C  0.74211747  0.30100828  0.40801995     0.03700
H219        H  0.72808682  0.22140447  0.40069376     0.08800
H220        H  0.74402467  0.32899097  0.40466599     0.07600
C221        C  0.79284902  0.92428642  0.56939572    -0.11400
C222        C  0.80465652  0.95109059  0.56772731     0.04000
C223        C  0.80094914  0.98359834  0.55582683    -0.12000
C224        C  0.78567494  0.98963563  0.54505731     0.18900
C225        C  0.77413764  0.96238279  0.54596467    -0.09000
C226        C  0.77769927  0.93034042  0.55831082    -0.02000
H227        H  0.80994672  0.00437879  0.55519323     0.05400
C228        C  0.78177237  0.02460691  0.53341982     0.20900
H229        H  0.76850786  0.91000286  0.55940202     0.10600
C230        C  0.78111055  0.02827968  0.50651353    -0.15400
C231        C  0.77722270  0.06085744  0.49495305     0.03600
C232        C  0.77425764  0.09083778  0.51045263    -0.10700
C233        C  0.77476798  0.08684045  0.53741019    -0.00700
C234        C  0.77819133  0.05407306  0.54888633    -0.05900
H235        H  0.78363947  0.00562661  0.49444495     0.06600
H236        H  0.77227220  0.10930255  0.54968384     0.10000
Br237      Br  0.75315164  0.96816290  0.53127416    -0.05600
Br238      Br  0.82557764  0.94542276  0.58270932    -0.02500
Br239      Br  0.77701280  0.06283446  0.45802800     0.00300
Br240      Br  0.77705444  0.05036835  0.58573264    -0.04000
C241        C  0.71989198  0.78067887  0.85721964    -0.11400
C242        C  0.72599474  0.74728155  0.84954587     0.04000
C243        C  0.73245689  0.74293543  0.82472435    -0.12000
C244        C  0.73325337  0.77123761  0.80715554     0.18900
C245        C  0.72692665  0.80427453  0.81453895    -0.09000
C246        C  0.72038957  0.80867495  0.83921113    -0.02000
H247        H  0.73717197  0.71730398  0.81919939     0.05400
C248        C  0.74082383  0.76606132  0.78137924     0.20900
H249        H  0.71563751  0.83442761  0.84426213     0.10600
C250        C  0.73149283  0.77044884  0.75907491    -0.15400
C251        C  0.73843907  0.76816357  0.73449553     0.03600
C252        C  0.75502972  0.76120766  0.73182421    -0.10700
C253        C  0.76420773  0.75494157  0.75405169    -0.00700
C254        C  0.75727915  0.75740235  0.77867262    -0.05900
H255        H  0.71874470  0.77602137  0.76081808     0.06600
H256        H  0.77695618  0.74937154  0.75230120     0.10000
Br257      Br  0.72742792  0.84479064  0.79205249    -0.05600
Br258      Br  0.72714095  0.70692832  0.87205271    -0.02500
Br259      Br  0.72458415  0.77300477  0.70518515     0.00300
Br260      Br  0.77104643  0.75068798  0.80792074    -0.04000
C261        C  0.68515376  0.28606251  0.24798432    -0.11400
C262        C  0.68846847  0.25518386  0.26273208     0.04000
C263        C  0.69423308  0.25820313  0.28795474    -0.12000
C264        C  0.69640748  0.29129657  0.29951858     0.18900
C265        C  0.69251195  0.32199625  0.28540271    -0.09000
C266        C  0.68708552  0.31920791  0.25996457    -0.02000
H267        H  0.69721783  0.23436771  0.29861872     0.05400
C268        C  0.70419223  0.29288716  0.32524083     0.20900
H269        H  0.68458455  0.34338671  0.24945677     0.10600
C270        C  0.71931341  0.30918080  0.32731863    -0.15400
C271        C  0.72838796  0.30642106  0.34992482     0.03600
C272        C  0.72241577  0.28650964  0.37104492    -0.10700
C273        C  0.70696373  0.27158033  0.36933586    -0.00700
C274        C  0.69781929  0.27483082  0.34683300    -0.05900
H275        H  0.72445501  0.32271950  0.31076562     0.06600
H276        H  0.70205532  0.25680096  0.38550312     0.10000
Br277      Br  0.69405478  0.36833689  0.30016896    -0.05600
Br278      Br  0.68469790  0.20778115  0.25107476    -0.02500
Br279      Br  0.74945771  0.32728283  0.34927980     0.00300
Br280      Br  0.67673767  0.25403298  0.34657409    -0.04000
C281        C  0.68660030  0.98021834  0.00408308    -0.11400
C282        C  0.68761471  0.01105046  0.98849678     0.04000
C283        C  0.68684950  0.04463783  0.99987212    -0.12000
C284        C  0.68475913  0.04844996  0.02656055     0.18900
C285        C  0.68338000  0.01783143  0.04201338    -0.09000
C286        C  0.68461897  0.98435751  0.03084255    -0.02000
H287        H  0.68742949  0.06801895  0.98771086     0.05400
C288        C  0.68265863  0.08435307  0.03759853     0.20900
H289        H  0.68365359  0.96132974  0.04326835     0.10600
C290        C  0.66924670  0.10456857  0.03030033    -0.15400
C291        C  0.66597004  0.13727368  0.04183424     0.03600
C292        C  0.67637817  0.15050215  0.06107302    -0.10700
C293        C  0.69018235  0.13080668  0.06742846    -0.00700
C294        C  0.69341953  0.09823421  0.05586726    -0.05900
H295        H  0.66092403  0.09417963  0.01618030     0.06600
H296        H  0.69854239  0.14070419  0.08166176     0.10000
Br297      Br  0.67830582  0.01998168  0.07811616    -0.05600
Br298      Br  0.68833382  0.00984449  0.95154976    -0.02500
Br299      Br  0.64633343  0.16023769  0.03190654     0.00300
Br300      Br  0.71280574  0.07406289  0.06558959    -0.04000
C301        C  0.88804066  0.45037252  0.54840961    -0.11400
C302        C  0.87776071  0.43499205  0.56693886     0.04000
C303        C  0.86269997  0.42198996  0.55953596    -0.12000
C304        C  0.85793714  0.42304701  0.53362207     0.18900
C305        C  0.86791272  0.43990484  0.51531199    -0.09000
C306        C  0.88279841  0.45369808  0.52285650    -0.02000
H307        H  0.85517424  0.40868837  0.57368138     0.05400
C308        C  0.84406097  0.40134481  0.52545903     0.20900
H309        H  0.89079020  0.46483457  0.50837777     0.10600
C310        C  0.82928018  0.41724265  0.51950560    -0.15400
C311        C  0.81608951  0.39666506  0.51176025     0.03600
C312        C  0.81776250  0.35957720  0.50925579    -0.10700
C313        C  0.83260876  0.34394223  0.51544794    -0.00700
C314        C  0.84560268  0.36437719  0.52366475    -0.05900
H315        H  0.82792882  0.44563274  0.52136451     0.06600
H316        H  0.83419430  0.31559598  0.51378020     0.10000
Br317      Br  0.86254289  0.44097628  0.47939597    -0.05600
Br318      Br  0.88442007  0.42797822  0.60191740    -0.02500
Br319      Br  0.79585643  0.42036211  0.50736189     0.00300
Br320      Br  0.86533119  0.34061723  0.53216280    -0.04000
C321        C  0.90294096  0.52011223  0.56560656    -0.11400
C322        C  0.89881316  0.54566263  0.54700922     0.04000
C323        C  0.88782462  0.57256859  0.55321984    -0.12000
C324        C  0.88074022  0.57407529  0.57786872     0.18900
C325        C  0.88504454  0.54855591  0.59647082    -0.09000
C326        C  0.89606735  0.52199126  0.59024677    -0.02000
H327        H  0.88456119  0.59192424  0.53869124     0.05400
C328        C  0.86879241  0.60207389  0.58394250     0.20900
H329        H  0.89900591  0.50201150  0.60447976     0.10600
C330        C  0.85250511  0.59302364  0.58700761    -0.15400
C331        C  0.84100504  0.61860368  0.59367292     0.03600
C332        C  0.84571263  0.65425671  0.59713922    -0.10700
C333        C  0.86202816  0.66320423  0.59380813    -0.00700
C334        C  0.87352175  0.63747013  0.58748837    -0.05900
H335        H  0.84873394  0.56584551  0.58423586     0.06600
H336        H  0.86592602  0.69027060  0.59663856     0.10000
Br337      Br  0.87611832  0.54875263  0.63060429    -0.05600
Br338      Br  0.90737676  0.54337032  0.51275434    -0.02500
Br339      Br  0.81900851  0.60337059  0.59626653     0.00300
Br340      Br  0.89568371  0.65141252  0.58501596    -0.04000
C341        C  0.94094983  0.51070911  0.55996617    -0.11400
C342        C  0.94778909  0.52145448  0.58345409     0.04000
C343        C  0.96370994  0.53420349  0.58403846    -0.12000
C344        C  0.97309107  0.53600124  0.56140521     0.18900
C345        C  0.96573187  0.52748881  0.53768322    -0.09000
C346        C  0.94976791  0.51578201  0.53717107    -0.02000
H347        H  0.96919233  0.54001047  0.60245233     0.05400
C348        C  0.99098948  0.53839974  0.56315471     0.20900
H349        H  0.94484365  0.50653410  0.51909646     0.10600
C350        C  0.99917261  0.51062183  0.57550908    -0.15400
C351        C  0.01536567  0.50378291  0.56992295     0.03600
C352        C  0.02355449  0.52449303  0.55141769    -0.10700
C353        C  0.01610075  0.55526834  0.54200014    -0.00700
C354        C  0.00002089  0.56287674  0.54838289    -0.05900
H355        H  0.99256551  0.49198779  0.58746216     0.06600
H356        H  0.02224687  0.57165168  0.52788342     0.10000
Br357      Br  0.97759476  0.52411043  0.50590212    -0.05600
Br358      Br  0.93658137  0.51472573  0.61543677    -0.02500
Br359      Br  0.02501109  0.46220025  0.58457425     0.00300
Br360      Br  0.99040361  0.60503284  0.53462440    -0.04000
C361        C  0.30715395  0.18094860  0.06295994    -0.11400
C362        C  0.29250669  0.16203410  0.06104833     0.04000
C363        C  0.29196378  0.13056956  0.04704703    -0.12000
C364        C  0.30579820  0.11716729  0.03511218     0.18900
C365        C  0.32035573  0.13600342  0.03680325    -0.09000
C366        C  0.32090047  0.16782954  0.05040143    -0.02000
H367        H  0.28070867  0.11612717  0.04573699     0.05400
C368        C  0.30486959  0.08266549  0.02201651     0.20900
H369        H  0.33228749  0.18168792  0.05196329     0.10600
C370        C  0.30371803  0.08144650  0.99511046    -0.15400
C371        C  0.30205702  0.04905181  0.98236838     0.03600
C372        C  0.30138129  0.01715633  0.99672771    -0.10700
C373        C  0.30298208  0.01859300  0.02365766    -0.00700
C374        C  0.30467035  0.05096572  0.03629961    -0.05900
H375        H  0.30410407  0.10581179  0.98400436     0.06600
H376        H  0.30259999  0.99446304  0.03502105     0.10000
Br377      Br  0.33994052  0.11809548  0.02223530    -0.05600
Br378      Br  0.27267666  0.17793965  0.07621193    -0.02500
Br379      Br  0.30187569  0.05010181  0.94539191     0.00300
Br380      Br  0.30675560  0.05086849  0.07312354    -0.04000
C381        C  0.23573370  0.27577108  0.36033268    -0.11400
C382        C  0.24540693  0.30630179  0.35727757     0.04000
C383        C  0.25399195  0.31167763  0.33433771    -0.12000
C384        C  0.25286767  0.28755968  0.31399163     0.18900
C385        C  0.24291297  0.25760320  0.31674286    -0.09000
C386        C  0.23466589  0.25165029  0.33990177    -0.02000
H387        H  0.26168890  0.33474548  0.33238594     0.05400
C388        C  0.26250906  0.29358628  0.29035693     0.20900
H389        H  0.22703271  0.22847165  0.34170141     0.10600
C390        C  0.27512886  0.27029101  0.28452824    -0.15400
C391        C  0.28435285  0.27486339  0.26217295     0.03600
C392        C  0.28126077  0.30370755  0.24558403    -0.10700
C393        C  0.26891040  0.32750449  0.25171483    -0.00700
C394        C  0.25937697  0.32231553  0.27370650    -0.05900
H395        H  0.27769000  0.24823560  0.29731390     0.06600
H396        H  0.26620557  0.34926261  0.23874160     0.10000
Br397      Br  0.23947488  0.22531301  0.28887550    -0.05600
Br398      Br  0.24812949  0.34069481  0.38400238    -0.02500
Br399      Br  0.30118446  0.24135245  0.25537365     0.00300
Br400      Br  0.24141835  0.35329619  0.27911283    -0.04000
C401        C  0.14395259  0.36084810  0.49895558    -0.11400
C402        C  0.13972744  0.36727697  0.52486383     0.04000
C403        C  0.12719549  0.39073680  0.53064421    -0.12000
C404        C  0.11842076  0.40749434  0.51098032     0.18900
C405        C  0.12300413  0.40194070  0.48510525    -0.09000
C406        C  0.13577472  0.37912782  0.47935217    -0.02000
H407        H  0.12396480  0.39519281  0.55060944     0.05400
C408        C  0.10381741  0.42826416  0.51767973     0.20900
H409        H  0.13884483  0.37443197  0.45935631     0.10600
C410        C  0.10269629  0.46424142  0.51072435    -0.15400
C411        C  0.08826936  0.48305093  0.51414326     0.03600
C412        C  0.07486267  0.46610229  0.52540442    -0.10700
C413        C  0.07626673  0.43068770  0.53334626    -0.00700
C414        C  0.09048517  0.41175871  0.52958530    -0.05900
H415        H  0.11284428  0.47724529  0.50153450     0.06600
H416        H  0.06591953  0.41715230  0.54151192     0.10000
Br417      Br  0.11145030  0.42242042  0.45673653    -0.05600
Br418      Br  0.15088228  0.34563353  0.55316841    -0.02500
Br419      Br  0.08695384  0.53024284  0.50063237     0.00300
Br420      Br  0.09034703  0.36244949  0.53880792    -0.04000
C421        C  0.23573733  0.84478816  0.86105660    -0.11400
C422        C  0.23855875  0.86146080  0.83707722     0.04000
C423        C  0.22835090  0.85451468  0.81626374    -0.12000
C424        C  0.21550409  0.83052775  0.81877972     0.18900
C425        C  0.21279513  0.81373959  0.84268222    -0.09000
C426        C  0.22283259  0.82103371  0.86356113    -0.02000
H427        H  0.23082948  0.86676057  0.79773557     0.05400
C428        C  0.20602104  0.82099410  0.79570892     0.20900
H429        H  0.22063785  0.80781234  0.88182341     0.10600
C430        C  0.20769824  0.78698754  0.78527701    -0.15400
C431        C  0.19981441  0.77758746  0.76250230     0.03600
C432        C  0.19043071  0.80289933  0.74931166    -0.10700
C433        C  0.18838399  0.83657750  0.76022444    -0.00700
C434        C  0.19588740  0.84558230  0.78337913    -0.05900
H435        H  0.21544625  0.76784024  0.79468706     0.06600
H436        H  0.18098979  0.85613896  0.75053358     0.10000
Br437      Br  0.19562374  0.78041040  0.84765374    -0.05600
Br438      Br  0.25719597  0.89041730  0.83083497    -0.02500
Br439      Br  0.20323963  0.73073365  0.74960075     0.00300
Br440      Br  0.19168970  0.89139343  0.79766828    -0.04000
C441        C  0.17786151  0.91659805  0.56032294    -0.11400
C442        C  0.17781817  0.91742974  0.53306212     0.04000
C443        C  0.17962122  0.94978726  0.52002214    -0.12000
C444        C  0.18199646  0.98123750  0.53367398     0.18900
C445        C  0.18285784  0.98025173  0.56066527    -0.09000
C446        C  0.18062255  0.94830132  0.57372823    -0.02000
H447        H  0.17932170  0.95041636  0.49914609     0.05400
C448        C  0.18302716  0.01522997  0.51977442     0.20900
H449        H  0.18081819  0.94854713  0.59458479     0.10600
C450        C  0.16886056  0.03426322  0.51520965    -0.15400
C451        C  0.16941641  0.06812147  0.50426384     0.03600
C452        C  0.18442776  0.08361428  0.49808733    -0.10700
C453        C  0.19855197  0.06378579  0.50170178    -0.00700
C454        C  0.19793822  0.02980490  0.51246957    -0.05900
H455        H  0.15731842  0.02280336  0.52043066     0.06600
H456        H  0.21016439  0.07512672  0.49677697     0.10000
Br457      Br  0.18704623  0.02198612  0.58049335    -0.05600
Br458      Br  0.17667903  0.87550392  0.51245177    -0.02500
Br459      Br  0.14927949  0.09076513  0.49677904     0.00300
Br460      Br  0.21768441  0.00446384  0.51747351    -0.04000
C461        C  0.11499908  0.66351342  0.60314221    -0.11400
C462        C  0.11772921  0.64508202  0.57993896     0.04000
C463        C  0.10694244  0.61878922  0.57209758    -0.12000
C464        C  0.09325546  0.61061398  0.58685771     0.18900
C465        C  0.09056731  0.62868521  0.61012392    -0.09000
C466        C  0.10151712  0.65459181  0.61827881    -0.02000
H467        H  0.10911586  0.60493967  0.55418169     0.05400
C468        C  0.08158577  0.58441313  0.57686061     0.20900
H469        H  0.09918810  0.66869765  0.63603078     0.10600
C470        C  0.08199180  0.54923480  0.58569109    -0.15400
C471        C  0.07181009  0.52354182  0.57501889     0.03600
C472        C  0.06129801  0.53281385  0.55480522    -0.10700
C473        C  0.06043499  0.56834666  0.54690036    -0.00700
C474        C  0.07039867  0.59404888  0.55780109    -0.05900
H475        H  0.09030136  0.54174879  0.60079469     0.06600
H476        H  0.05236914  0.57583441  0.53149021     0.10000
Br477      Br  0.07161023  0.62016552  0.63041150    -0.05600
Br478      Br  0.13626832  0.65377902  0.55862976    -0.02500
Br479      Br  0.07205573  0.47690479  0.58961622     0.00300
Br480      Br  0.06846123  0.64201879  0.54595097    -0.04000
C481        C  0.64257584  0.70878495  0.02528415    -0.11400
C482        C  0.63844637  0.71228268  0.05164059     0.04000
C483        C  0.62608562  0.69167948  0.06228015    -0.12000
C484        C  0.61795895  0.66638603  0.04756394     0.18900
C485        C  0.62263620  0.66129828  0.02172117    -0.09000
C486        C  0.63480348  0.68243634  0.01079373    -0.02000
H487        H  0.62269129  0.69562579  0.08224500     0.05400
C488        C  0.60392956  0.64775153  0.05918682     0.20900
H489        H  0.63787904  0.67880839  0.99068662     0.10600
C490        C  0.58853757  0.65463897  0.04933176    -0.15400
C491        C  0.57478259  0.64172370  0.06179053     0.03600
C492        C  0.57625334  0.62148037  0.08452897    -0.10700
C493        C  0.59160102  0.61326144  0.09391102    -0.00700
C494        C  0.60541735  0.62640304  0.08147904    -0.05900
H495        H  0.58718678  0.67129195  0.03242126     0.06600
H496        H  0.59281269  0.59767900  0.11137373     0.10000
Br497      Br  0.61287969  0.62552231  0.00079460    -0.05600
Br498      Br  0.64972628  0.74280416  0.07491235    -0.02500
Br499      Br  0.55413292  0.65349233  0.04757498     0.00300
Br500      Br  0.62603980  0.61530794  0.09591502    -0.04000
C501        C  0.56039789  0.54769960  0.09119480    -0.11400
C502        C  0.56275594  0.52255973  0.11099533     0.04000
C503        C  0.57238797  0.49295116  0.10664732    -0.12000
C504        C  0.58017182  0.48819283  0.08296065     0.18900
C505        C  0.57718324  0.51212675  0.06264235    -0.09000
C506        C  0.56729200  0.54166920  0.06684699    -0.02000
H507        H  0.57486206  0.47498609  0.12249539     0.05400
C508        C  0.59340249  0.46209450  0.08197644     0.20900
H509        H  0.56564809  0.56094114  0.05157722     0.10600
C510        C  0.59017861  0.42663433  0.07605799    -0.15400
C511        C  0.60190607  0.40043476  0.07997283     0.03600
C512        C  0.61715348  0.40977794  0.08987523    -0.10700
C513        C  0.62043570  0.44545031  0.09502393    -0.00700
C514        C  0.60872714  0.47144893  0.09121653    -0.05900
H515        H  0.57825853  0.41908197  0.06969907     0.06600
H516        H  0.63200761  0.45298419  0.10287771     0.10000
Br517      Br  0.58730794  0.50676035  0.02966453    -0.05600
Br518      Br  0.55525700  0.53003550  0.14551650    -0.02500
Br519      Br  0.59569171  0.35208761  0.07471710     0.00300
Br520      Br  0.61369086  0.51911166  0.10099113    -0.04000
C521        C  0.39483183  0.62244685  0.00833064    -0.11400
C522        C  0.38871733  0.62300769  0.98300837     0.04000
C523        C  0.37383005  0.63882796  0.97801830    -0.12000
C524        C  0.36478334  0.65360817  0.99808668     0.18900
C525        C  0.36989476  0.64888579  0.02370830    -0.09000
C526        C  0.38490239  0.63348497  0.02870064    -0.02000
H527        H  0.36984160  0.64182391  0.95826906     0.05400
C528        C  0.35229801  0.68003065  0.99178413     0.20900
H529        H  0.38935474  0.63294659  0.04828977     0.10600
C530        C  0.33593333  0.67096165  0.99203157    -0.15400
C531        C  0.32409405  0.69675550  0.98747766     0.03600
C532        C  0.32868191  0.73233949  0.98283678    -0.10700
C533        C  0.34512532  0.74089393  0.98223972    -0.00700
C534        C  0.35684782  0.71518720  0.98649247    -0.05900
H535        H  0.33237332  0.64393372  0.99620300     0.06600
H536        H  0.34895086  0.76780725  0.97831015     0.10000
Br537      Br  0.35754401  0.66673619  0.05209416    -0.05600
Br538      Br  0.40060199  0.60398507  0.95449489    -0.02500
Br539      Br  0.30201785  0.68202364  0.98960876     0.00300
Br540      Br  0.37902386  0.72955968  0.98538048    -0.04000
C541        C  0.41092369  0.57083019  0.04685040    -0.11400
C542        C  0.40984807  0.57137728  0.07396119     0.04000
C543        C  0.40135534  0.54461535  0.08698131    -0.12000
C544        C  0.39378803  0.51747400  0.07321299     0.18900
C545        C  0.39473676  0.51718961  0.04616485    -0.09000
C546        C  0.40333320  0.54359704  0.03324513    -0.02000
H547        H  0.40033908  0.54537688  0.10774038     0.05400
C548        C  0.38395504  0.49092366  0.08696307     0.20900
H549        H  0.40393253  0.54329682  0.01244717     0.10600
C550        C  0.36826309  0.49993328  0.09442996    -0.15400
C551        C  0.35769610  0.47415948  0.10399113     0.03600
C552        C  0.36290998  0.43880284  0.10633588    -0.10700
C553        C  0.37880314  0.43010840  0.09965419    -0.00700
C554        C  0.38935018  0.45590600  0.09013277    -0.05900
H555        H  0.36399323  0.52676453  0.09162827     0.06600
H556        H  0.38292921  0.40300774  0.10141612     0.10000
Br557      Br  0.38383784  0.48223046  0.02595224    -0.05600
Br558      Br  0.41843815  0.60938273  0.09390559    -0.02500
Br559      Br  0.33585508  0.48794302  0.11065900     0.00300
Br560      Br  0.41080299  0.44204457  0.08082722    -0.04000
C561        C  0.52377368  0.56762445  0.10045965    -0.11400
C562        C  0.51065962  0.56545370  0.11774616     0.04000
C563        C  0.49507531  0.56042086  0.10831784    -0.12000
C564        C  0.49228803  0.55751372  0.08177402     0.18900
C565        C  0.50557638  0.55530859  0.06486443    -0.09000
C566        C  0.52119483  0.55994175  0.07434858    -0.02000
H567        H  0.48496409  0.56205137  0.12149867     0.05400
C568        C  0.47611363  0.56683652  0.07195339     0.20900
H569        H  0.53108037  0.56175556  0.06074084     0.10600
C570        C  0.47130186  0.60221330  0.07429690    -0.15400
C571        C  0.45721684  0.61432111  0.06278487     0.03600
C572        C  0.44752093  0.59083863  0.04865300    -0.10700
C573        C  0.45168916  0.55483721  0.04769054    -0.00700
C574        C  0.46595297  0.54270457  0.05925315    -0.05900
H575        H  0.47892127  0.62091635  0.08431150     0.06600
H576        H  0.44433021  0.53658825  0.03681674     0.10000
Br577      Br  0.50296921  0.55210061  0.02822072    -0.05600
Br578      Br  0.51314995  0.57274861  0.15407811    -0.02500
Br579      Br  0.45201488  0.66362679  0.06630730     0.00300
Br580      Br  0.47135793  0.49355988  0.05665522    -0.04000
loop_ 
_geom_bond_atom_site_label_1 
_geom_bond_atom_site_label_2 
_geom_bond_distance 
_geom_bond_site_symmetry_2 
_ccdc_geom_bond_type 
N1            C5   1.357       .  A
N1            C2   1.357       .  A
N1          C541   1.438       .  S
C2            C3   1.382       .  A
C2          C572   1.476       .  S
C3            C4   1.372       .  A
C3            H6   1.083       .  S
C4            C5   1.382       .  A
C4            H7   1.082   1_554  S
C5          C521   1.482       .  S
N8           C12   1.354       .  A
N8            C9   1.357       .  A
N8          C501   1.440       .  S
C9           C10   1.386       .  A
C9          C561   1.483       .  S
C10          C11   1.374       .  A
C10          H13   1.082       .  S
C11          C12   1.380       .  A
C11          H14   1.082       .  S
C12         C492   1.476       .  S
N15          C19   1.339       .  A
N15          N16   1.319       .  A
N15         Cu23   2.055       .  S
N16          C17   1.348       .  A
N16         Cu22   2.079       .  S
C17          C18   1.391       .  A
C17          H20   1.081       .  S
C18          C19   1.384       .  A
C18         C441   1.484       .  S
C19          H21   1.082       .  S
Cu22         N25   2.081       .  S
Cu23         N33   2.055       .  S
Cu24         N26   2.098       .  S
Cu24         N32   2.096       .  S
N25          C29   1.345       .  A
N25          N26   1.326       .  A
N26          C27   1.349       .  A
C27          C28   1.386       .  A
C27          H30   1.082       .  S
C28          C29   1.383       .  A
C28         C461   1.482       .  S
C29          H31   1.082       .  S
N32          C36   1.351       .  A
N32          N33   1.321       .  A
N33          C34   1.341       .  A
C34          C35   1.380       .  A
C34          H37   1.082       .  S
C35          C36   1.390       .  A
C35         C432   1.480       .  S
C36          H38   1.082       .  S
N39          C43   1.344       .  A
N39          N40   1.323       .  A
N39         Cu47   2.073       .  S
N40          C41   1.344       .  A
N40         Cu46   2.076       .  S
C41          C42   1.384       .  A
C41          H44   1.084       .  S
C42          C43   1.383       .  A
C42         C452   1.477       .  S
C43          H45   1.082       .  S
Cu46         N49   2.077       .  S
Cu47         N57   2.073       .  S
Cu48         N50   2.073       .  S
Cu48         N56   2.072       .  S
N49          C53   1.345       .  A
N49          N50   1.322       .  A
N50          C51   1.345       .  A
C51          C52   1.384       .  A
C51          H54   1.082       .  S
C52          C53   1.386       .  A
C52         C401   1.481       .  S
C53          H55   1.082       .  S
N56          C60   1.344       .  A
N56          N57   1.322       .  A
N57          C58   1.345       .  A
C58          C59   1.386       .  A
C58          H61   1.083       .  S
C59          C60   1.384       .  A
C59         C381   1.480       .  S
C60          H62   1.081       .  S
N63          C67   1.339       .  A
N63          N64   1.319       .  A
N63         Cu71   2.050       .  S
N64          C65   1.346       .  A
N64         Cu70   2.070       .  S
C65          C66   1.388       .  A
C65          H68   1.083       .  S
C66          C67   1.381       .  A
C66         C361   1.478       .  S
C67          H69   1.083       .  S
Cu70         N73   2.072       .  S
Cu71         N81   2.050       .  S
Cu72         N74   2.084       .  S
Cu72         N80   2.083       .  S
N73          C77   1.343       .  A
N73          N74   1.325       .  A
N74          C75   1.346       .  A
C75          C76   1.383       .  A
C75          H78   1.081       .  S
C76          C77   1.379       .  A
C76         C552   1.472       .  S
C77          H79   1.082       .  S
N80          C84   1.348       .  A
N80          N81   1.321       .  A
N81          C82   1.340       .  A
C82          C83   1.378       .  A
C82          H85   1.082       .  S
C83          C84   1.387       .  A
C83         C392   1.472       .  S
C84          H86   1.082       .  S
N87          C91   1.345       .  A
N87          N88   1.322       .  A
N87         Cu95   2.077       .  S
N88          C89   1.346       .  A
N88         Cu94   2.082       .  S
C89          C90   1.387       .  A
C89          H92   1.083   1_556  S
C90          C91   1.386       .  A
C90         C372   1.483   1_565  S
C91          H93   1.083       .  S
Cu94         N97   2.082       .  S
Cu95        N105   2.078       .  S
Cu96         N98   2.067       .  S
Cu96        N104   2.067       .  S
N97         C101   1.343       .  A
N97          N98   1.321       .  A
N98          C99   1.346       .  A
C99         C100   1.385       .  A
C99         H102   1.081       .  S
C100        C101   1.388       .  A
C100        C532   1.484       .  S
C101        H103   1.082       .  S
N104        C108   1.343       .  A
N104        N105   1.323       .  A
N105        C106   1.346       .  A
C106        C107   1.384       .  A
C106        H109   1.082       .  S
C107        C108   1.381       .  A
C107        C421   1.476       .  S
C108        H110   1.082       .  S
N111        C115   1.362       .  A
N111        C112   1.360       .  A
N111        C472   1.442       .  S
C112        C113   1.381       .  A
C112        C352   1.479       .  S
C113        C114   1.370       .  A
C113        H116   1.083       .  S
C114        C115   1.381       .  A
C114        H117   1.083       .  S
C115        C412   1.480       .  S
N118        C122   1.355       .  A
N118        C119   1.358       .  A
N118        C321   1.436       .  S
C119        C120   1.385       .  A
C119        C341   1.482       .  S
C120        C121   1.374       .  A
C120        H123   1.082       .  S
C121        C122   1.379       .  A
C121        H124   1.082       .  S
C122        C301   1.475       .  S
N125        C129   1.342       .  A
N125        N126   1.322       .  A
N125       Cu133   2.077       .  S
N126        C127   1.348       .  A
N126       Cu132   2.079       .  S
C127        C128   1.389       .  A
C127        H130   1.082       .  S
C128        C129   1.386       .  A
C128        C292   1.488       .  S
C129        H131   1.082       .  S
Cu132       N135   2.079       .  S
Cu133       N143   2.077       .  S
Cu134       N136   2.083       .  S
Cu134       N142   2.082       .  S
N135        C139   1.347       .  A
N135        N136   1.324       .  A
N136        C137   1.345       .  A
C137        C138   1.384       .  A
C137        H140   1.082       .  S
C138        C139   1.384       .  A
C138        C512   1.480       .  S
C139        H141   1.082       .  S
N142        C146   1.345       .  A
N142        N143   1.319       .  A
N143        C144   1.346       .  A
C144        C145   1.392       .  A
C144        H147   1.079       .  S
C145        C146   1.392       .  A
C145        C261   1.498       .  S
C146        H148   1.082       .  S
N149        C153   1.348       .  A
N149        N150   1.321       .  A
N149       Cu157   2.086       .  S
N150        C151   1.343   1_556  A
N150       Cu156   2.073       .  S
C151        C152   1.388   1_554  A
C151        H154   1.083       .  S
C152        C153   1.391       .  A
C152        C281   1.492   1_556  S
C153        H155   1.083       .  S
Cu156       N159   2.074       .  S
Cu157       N167   2.087       .  S
Cu158       N160   2.091       .  S
Cu158       N166   2.092       .  S
N159        C163   1.343   1_556  A
N159        N160   1.321       .  A
N160        C161   1.350       .  A
C161        C162   1.392   1_556  A
C161        H164   1.081       .  S
C162        C163   1.386       .  A
C162        C481   1.491       .  S
C163        H165   1.080       .  S
N166        C170   1.348       .  A
N166        N167   1.323       .  A
N167        C168   1.345       .  A
C168        C169   1.390       .  A
C168        H171   1.081       .  S
C169        C170   1.391       .  A
C169        C241   1.497       .  S
C170        H172   1.080       .  S
N173        C177   1.343       .  A
N173        N174   1.324       .  A
N173       Cu181   2.075       .  S
N174        C175   1.353       .  A
N174       Cu180   2.105       .  S
C175        C176   1.390       .  A
C175        H178   1.083       .  S
C176        C177   1.381       .  A
C176        C221   1.484       .  S
C177        H179   1.082       .  S
Cu180       N183   2.105       .  S
Cu181       N191   2.075       .  S
Cu182       N184   2.084       .  S
Cu182       N190   2.083       .  S
N183        C187   1.349       .  A
N183        N184   1.324       .  A
N184        C185   1.347       .  A
C185        C186   1.386       .  A
C185        H188   1.082       .  S
C186        C187   1.389       .  A
C186        C332   1.490       .  S
C187        H189   1.082       .  S
N190        C194   1.348       .  A
N190        N191   1.321       .  A
N191        C192   1.345       .  A
C192        C193   1.385       .  A
C192        H195   1.082       .  S
C193        C194   1.386       .  A
C193        C252   1.482       .  S
C194        H196   1.082       .  S
N197        C201   1.352       .  A
N197        N198   1.322       .  A
N197       Cu205   2.100       .  S
N198        C199   1.342       .  A
N198       Cu204   2.068       .  S
C199        C200   1.383       .  A
C199        H202   1.083       .  S
C200        C201   1.393       .  A
C200        C232   1.490       .  S
C201        H203   1.083       .  S
Cu204       N207   2.068       .  S
Cu205       N215   2.101       .  S
Cu206       N208   2.076       .  S
Cu206       N214   2.077       .  S
N207        C211   1.342       .  A
N207        N208   1.320       .  A
N208        C209   1.347       .  A
C209        C210   1.389       .  A
C209        H212   1.082       .  S
C210        C211   1.385       .  A
C210        C312   1.485       .  S
C211        H213   1.082       .  S
N214        C218   1.346       .  A
N214        N215   1.325       .  A
N215        C216   1.347       .  A
C216        C217   1.387       .  A
C216        H219   1.082       .  S
C217        C218   1.384       .  A
C217        C272   1.485       .  S
C218        H220   1.082       .  S
C221        C222   1.411       .  A
C221        C226   1.404       .  A
C222        C223   1.407       .  A
C222       Br238   1.918       .  S
C223        C224   1.407       .  A
C223        H227   1.084   1_565  S
C224        C225   1.407       .  A
C224        C228   1.486   1_565  S
C225        C226   1.399       .  A
C225       Br237   1.917       .  S
C226        H229   1.084       .  S
C228        C230   1.404       .  A
C228        C234   1.407       .  A
C230        C231   1.405       .  A
C230        H235   1.083       .  S
C231        C232   1.414       .  A
C231       Br239   1.917       .  S
C232        C233   1.407       .  A
C233        C234   1.401       .  A
C233        H236   1.083       .  S
C234       Br240   1.918       .  S
C241        C242   1.419       .  A
C241        C246   1.408       .  A
C242        C243   1.404       .  A
C242       Br258   1.918       .  S
C243        C244   1.403       .  A
C243        H247   1.085       .  S
C244        C245   1.409       .  A
C244        C248   1.490       .  S
C245        C246   1.400       .  A
C245       Br257   1.920       .  S
C246        H249   1.083       .  S
C248        C250   1.404       .  A
C248        C254   1.412       .  A
C250        C251   1.401       .  A
C250        H255   1.083       .  S
C251        C252   1.410       .  A
C251       Br259   1.919       .  S
C252        C253   1.404       .  A
C253        C254   1.403       .  A
C253        H256   1.083       .  S
C254       Br260   1.919       .  S
C261        C262   1.420       .  A
C261        C266   1.410       .  A
C262        C263   1.400       .  A
C262       Br278   1.919       .  S
C263        C264   1.402       .  A
C263        H267   1.084       .  S
C264        C265   1.407       .  A
C264        C268   1.487       .  S
C265        C266   1.401       .  A
C265       Br277   1.919       .  S
C266        H269   1.082       .  S
C268        C270   1.403       .  A
C268        C274   1.410       .  A
C270        C271   1.400       .  A
C270        H275   1.084       .  S
C271        C272   1.414       .  A
C271       Br279   1.919       .  S
C272        C273   1.405       .  A
C273        C274   1.400       .  A
C273        H276   1.084       .  S
C274       Br280   1.919       .  S
C281        C282   1.417   1_564  A
C281        C286   1.407       .  A
C282        C283   1.404       .  A
C282       Br298   1.919       .  S
C283        C284   1.403   1_556  A
C283        H287   1.084       .  S
C284        C285   1.408       .  A
C284        C288   1.485       .  S
C285        C286   1.398   1_545  A
C285       Br297   1.921       .  S
C286        H289   1.083       .  S
C288        C290   1.403       .  A
C288        C294   1.408       .  A
C290        C291   1.402       .  A
C290        H295   1.084       .  S
C291        C292   1.416       .  A
C291       Br299   1.919       .  S
C292        C293   1.407       .  A
C293        C294   1.398       .  A
C293        H296   1.083       .  S
C294       Br300   1.920       .  S
C301        C302   1.407       .  A
C301        C306   1.402       .  A
C302        C303   1.399       .  A
C302       Br318   1.916       .  S
C303        C304   1.403       .  A
C303        H307   1.084       .  S
C304        C305   1.408       .  A
C304        C308   1.478       .  S
C305        C306   1.399       .  A
C305       Br317   1.918       .  S
C306        H309   1.084       .  S
C308        C310   1.402       .  A
C308        C314   1.406       .  A
C310        C311   1.404       .  A
C310        H315   1.083       .  S
C311        C312   1.415       .  A
C311       Br319   1.919       .  S
C312        C313   1.405       .  A
C313        C314   1.396       .  A
C313        H316   1.083       .  S
C314       Br320   1.921       .  S
C321        C322   1.405       .  A
C321        C326   1.401       .  A
C322        C323   1.405       .  A
C322       Br338   1.915       .  S
C323        C324   1.407       .  A
C323        H327   1.083       .  S
C324        C325   1.408       .  A
C324        C328   1.485       .  S
C325        C326   1.397       .  A
C325       Br337   1.918       .  S
C326        H329   1.082       .  S
C328        C330   1.403       .  A
C328        C334   1.407       .  A
C330        C331   1.403       .  A
C330        H335   1.084       .  S
C331        C332   1.415       .  A
C331       Br339   1.919       .  S
C332        C333   1.406       .  A
C333        C334   1.403       .  A
C333        H336   1.083       .  S
C334       Br340   1.918       .  S
C341        C342   1.408       .  A
C341        C346   1.401       .  A
C342        C343   1.408       .  A
C342       Br358   1.916       .  S
C343        C344   1.408       .  A
C343        H347   1.083       .  S
C344        C345   1.415       .  A
C344        C348   1.493       .  S
C345        C346   1.398       .  A
C345       Br357   1.923       .  S
C346        H349   1.084       .  S
C348        C350   1.404       .  A
C348        C354   1.412   1_655  A
C350        C351   1.400   1_655  A
C350        H355   1.083       .  S
C351        C352   1.408       .  A
C351       Br359   1.919       .  S
C352        C353   1.404       .  A
C353        C354   1.405       .  A
C353        H356   1.083       .  S
C354       Br360   1.918   1_455  S
C361        C362   1.415       .  A
C361        C366   1.405       .  A
C362        C363   1.397       .  A
C362       Br378   1.921       .  S
C363        C364   1.400       .  A
C363        H367   1.085       .  S
C364        C365   1.406       .  A
C364        C368   1.475       .  S
C365        C366   1.398       .  A
C365       Br377   1.917       .  S
C366        H369   1.084       .  S
C368        C370   1.401   1_554  A
C368        C374   1.405       .  A
C370        C371   1.401       .  A
C370        H375   1.084       .  S
C371        C372   1.414       .  A
C371       Br379   1.919       .  S
C372        C373   1.406   1_556  A
C373        C374   1.398       .  A
C373        H376   1.084   1_545  S
C374       Br380   1.919       .  S
C381        C382   1.413       .  A
C381        C386   1.405       .  A
C382        C383   1.399       .  A
C382       Br398   1.919       .  S
C383        C384   1.402       .  A
C383        H387   1.085       .  S
C384        C385   1.407       .  A
C384        C388   1.479       .  S
C385        C386   1.398       .  A
C385       Br397   1.919       .  S
C386        H389   1.084       .  S
C388        C390   1.403       .  A
C388        C394   1.409       .  A
C390        C391   1.398       .  A
C390        H395   1.084       .  S
C391        C392   1.410       .  A
C391       Br399   1.920       .  S
C392        C393   1.402       .  A
C393        C394   1.400       .  A
C393        H396   1.084       .  S
C394       Br400   1.918       .  S
C401        C402   1.411       .  A
C401        C406   1.404       .  A
C402        C403   1.401       .  A
C402       Br418   1.919       .  S
C403        C404   1.404       .  A
C403        H407   1.083       .  S
C404        C405   1.411       .  A
C404        C408   1.487       .  S
C405        C406   1.400       .  A
C405       Br417   1.920       .  S
C406        H409   1.083       .  S
C408        C410   1.408       .  A
C408        C414   1.410       .  A
C410        C411   1.405       .  A
C410        H415   1.083       .  S
C411        C412   1.408       .  A
C411       Br419   1.916       .  S
C412        C413   1.403       .  A
C413        C414   1.395       .  A
C413        H416   1.084       .  S
C414       Br420   1.921       .  S
C421        C422   1.410       .  A
C421        C426   1.403       .  A
C422        C423   1.401       .  A
C422       Br438   1.921       .  S
C423        C424   1.405       .  A
C423        H427   1.084       .  S
C424        C425   1.407       .  A
C424        C428   1.481       .  S
C425        C426   1.398       .  A
C425       Br437   1.918       .  S
C426        H429   1.084       .  S
C428        C430   1.404       .  A
C428        C434   1.407       .  A
C430        C431   1.400       .  A
C430        H435   1.084       .  S
C431        C432   1.410       .  A
C431       Br439   1.917       .  S
C432        C433   1.406       .  A
C433        C434   1.399       .  A
C433        H436   1.084       .  S
C434       Br440   1.918       .  S
C441        C442   1.415       .  A
C441        C446   1.407       .  A
C442        C443   1.402       .  A
C442       Br458   1.918       .  S
C443        C444   1.401       .  A
C443        H447   1.084       .  S
C444        C445   1.403       .  A
C444        C448   1.472   1_565  S
C445        C446   1.393       .  A
C445       Br457   1.920   1_565  S
C446        H449   1.083       .  S
C448        C450   1.400       .  A
C448        C454   1.405       .  A
C450        C451   1.398       .  A
C450        H455   1.085       .  S
C451        C452   1.412       .  A
C451       Br459   1.919       .  S
C452        C453   1.405       .  A
C453        C454   1.398       .  A
C453        H456   1.084       .  S
C454       Br460   1.918       .  S
C461        C462   1.412       .  A
C461        C466   1.405       .  A
C462        C463   1.400       .  A
C462       Br478   1.920       .  S
C463        C464   1.402       .  A
C463        H467   1.084       .  S
C464        C465   1.407       .  A
C464        C468   1.482       .  S
C465        C466   1.404       .  A
C465       Br477   1.917       .  S
C466        H469   1.084       .  S
C468        C470   1.404       .  A
C468        C474   1.406       .  A
C470        C471   1.404       .  A
C470        H475   1.083       .  S
C471        C472   1.410       .  A
C471       Br479   1.914       .  S
C472        C473   1.404       .  A
C473        C474   1.398       .  A
C473        H476   1.082       .  S
C474       Br480   1.918       .  S
C481        C482   1.416       .  A
C481        C486   1.408       .  A
C482        C483   1.398       .  A
C482       Br498   1.920       .  S
C483        C484   1.401       .  A
C483        H487   1.084       .  S
C484        C485   1.409       .  A
C484        C488   1.485       .  S
C485        C486   1.404       .  A
C485       Br497   1.919       .  S
C486        H489   1.083   1_554  S
C488        C490   1.403       .  A
C488        C494   1.413       .  A
C490        C491   1.397       .  A
C490        H495   1.083       .  S
C491        C492   1.408       .  A
C491       Br499   1.921       .  S
C492        C493   1.401       .  A
C493        C494   1.404       .  A
C493        H496   1.083       .  S
C494       Br500   1.918       .  S
C501        C502   1.410       .  A
C501        C506   1.405       .  A
C502        C503   1.395       .  A
C502       Br518   1.917       .  S
C503        C504   1.399       .  A
C503        H507   1.084       .  S
C504        C505   1.408       .  A
C504        C508   1.478       .  S
C505        C506   1.404       .  A
C505       Br517   1.916       .  S
C506        H509   1.082       .  S
C508        C510   1.402       .  A
C508        C514   1.407       .  A
C510        C511   1.404       .  A
C510        H515   1.083       .  S
C511        C512   1.414       .  A
C511       Br519   1.919       .  S
C512        C513   1.402       .  A
C513        C514   1.397       .  A
C513        H516   1.084       .  S
C514       Br520   1.918       .  S
C521        C522   1.410   1_554  A
C521        C526   1.404       .  A
C522        C523   1.398       .  A
C522       Br538   1.919       .  S
C523        C524   1.401       .  A
C523        H527   1.084       .  S
C524        C525   1.408   1_556  A
C524        C528   1.476       .  S
C525        C526   1.401       .  A
C525       Br537   1.918       .  S
C526        H529   1.083       .  S
C528        C530   1.402       .  A
C528        C534   1.406       .  A
C530        C531   1.405       .  A
C530        H535   1.083       .  S
C531        C532   1.416       .  A
C531       Br539   1.919       .  S
C532        C533   1.404       .  A
C533        C534   1.393       .  A
C533        H536   1.083       .  S
C534       Br540   1.921       .  S
C541        C542   1.410       .  A
C541        C546   1.402       .  A
C542        C543   1.402       .  A
C542       Br558   1.913       .  S
C543        C544   1.402       .  A
C543        H547   1.081       .  S
C544        C545   1.406       .  A
C544        C548   1.473       .  S
C545        C546   1.394       .  A
C545       Br557   1.919       .  S
C546        H549   1.080       .  S
C548        C550   1.401       .  A
C548        C554   1.406       .  A
C550        C551   1.398       .  A
C550        H555   1.084       .  S
C551        C552   1.409       .  A
C551       Br559   1.919       .  S
C552        C553   1.403       .  A
C553        C554   1.397       .  A
C553        H556   1.084       .  S
C554       Br560   1.919       .  S
C561        C562   1.411       .  A
C561        C566   1.404       .  A
C562        C563   1.399       .  A
C562       Br578   1.919       .  S
C563        C564   1.402       .  A
C563        H567   1.083       .  S
C564        C565   1.410       .  A
C564        C568   1.481       .  S
C565        C566   1.400       .  A
C565       Br577   1.919       .  S
C566        H569   1.083       .  S
C568        C570   1.401       .  A
C568        C574   1.410       .  A
C570        C571   1.392       .  A
C570        H575   1.084       .  S
C571        C572   1.408       .  A
C571       Br579   1.922       .  S
C572        C573   1.405       .  A
C573        C574   1.406       .  A
C573        H576   1.083       .  S
C574       Br580   1.916       .  S
