geometry optimzed in LAMMPS
_audit_creation_date              2020-11-30 
_audit_creation_method            'lammps2cif' 
_symmetry_space_group_name_H-M    'P1' 
_symmetry_Int_Tables_number       1 
_symmetry_cell_setting            triclinic 
loop_ 
_symmetry_equiv_pos_as_xyz 
  x,y,z 
_cell_length_a                    42.19074246 
_cell_length_b                    27.696636393950094 
_cell_length_c                    35.85541739737811 
_cell_angle_alpha                 89.99992862669916 
_cell_angle_beta                  115.97717047402674 
_cell_angle_gamma                 89.9990323284603 
loop_ 
_atom_site_label 
_atom_site_type_symbol 
_atom_site_fract_x 
_atom_site_fract_y 
_atom_site_fract_z 
_atom_site_charge 
C1          C  0.88790250  0.26932278  0.66678643     0.81000
N2          N  0.85216572  0.27053412  0.64952229    -0.77300
C3          C  0.83449587  0.24396550  0.66610944     0.83400
N4          N  0.85256896  0.21605740  0.69996311    -0.77300
C5          C  0.88832919  0.21480331  0.71727244     0.83500
N6          N  0.90600893  0.24142219  0.70066330    -0.79000
Zr7        Zr  0.48065316  0.16488366  0.48671284     2.17500
O8          O  0.47337237  0.07740505  0.48402558    -0.50600
O9          O  0.41852055  0.18578041  0.45343469    -0.73800
O10         O  0.46215034  0.13678039  0.53847282    -0.80500
O11         O  0.49363986  0.16606742  0.38790273    -0.82300
O12         O  0.49077787  0.18096721  0.59745227    -0.77900
O13         O  0.46465989  0.12686449  0.41973736    -0.89500
O14         O  0.41425315  0.26772793  0.45014858    -0.75500
O15         O  0.47676323  0.23538677  0.52247574    -0.85000
O16         O  0.47664001  0.23130585  0.44271367    -0.84700
O17         O  0.53328792  0.16499206  0.55110039    -0.71400
O18         O  0.53332187  0.16199701  0.47682792    -0.83600
Zr19       Zr  0.57850641  0.30198408  0.53291717     2.26400
Zr20       Zr  0.52972569  0.23723307  0.58588567     2.06300
Zr21       Zr  0.52945506  0.22972414  0.43367488     2.10000
Zr22       Zr  0.47327316  0.30155879  0.47871738     1.78800
O23         O  0.56552219  0.18518542  0.40783899    -0.92400
O24         O  0.44434553  0.34201692  0.51583088    -0.40200
O25         O  0.52583014  0.30153040  0.46869852    -0.76800
O26         O  0.52578150  0.30528726  0.54286036    -0.95500
O27         O  0.58245518  0.23557071  0.57678831    -0.88800
O28         O  0.58211426  0.23133760  0.49716779    -0.91700
C29         C  0.40088805  0.22525029  0.44392380     1.02100
C30         C  0.47257885  0.13350737  0.38939120     1.15000
C31         C  0.46917662  0.14794463  0.57602287     1.05800
O32         O  0.49701397  0.28375310  0.61511695    -0.93800
O33         O  0.56823463  0.29748131  0.63350367    -0.89600
O34         O  0.59853381  0.33492465  0.60243574    -0.82700
C35         C  0.59084189  0.32810828  0.63292886     1.12400
O36         O  0.58007311  0.07744543  0.54043243    -0.95800
Zr37       Zr  0.58578203  0.16510533  0.54102796     1.88900
O38         O  0.64067881  0.28085155  0.56492823    -0.72400
O39         O  0.56531608  0.19455710  0.65022709    -0.51700
O40         O  0.61261700  0.13507612  0.61207995    -0.96400
O41         O  0.61594664  0.12418876  0.50546441    -0.53600
O42         O  0.64479644  0.19897427  0.57077975    -0.73000
C43         C  0.65823836  0.24135016  0.57582673     0.99400
O44         O  0.58329564  0.38989758  0.53414792    -0.61800
O45         O  0.49413956  0.27047866  0.36821357    -0.56600
O46         O  0.59632082  0.33165599  0.48105081    -0.93300
O47         O  0.56596216  0.28947523  0.42123749    -0.91700
O48         O  0.44600453  0.33342028  0.40832693    -0.92000
O49         O  0.47655392  0.38928469  0.47768525    -0.90800
C50         C  0.58801562  0.32200706  0.44287136     1.18200
H51         H  0.45615310  0.22859685  0.41629263     0.34200
H52         H  0.52537368  0.33480870  0.55699484     0.45000
H53         H  0.60252178  0.23239469  0.49159330     0.38600
H54         H  0.53362923  0.13693272  0.56727187     0.35000
H55         H  0.42239427  0.35554948  0.49381832     0.26800
H56         H  0.55425943  0.20240761  0.66879952     0.32800
H57         H  0.63674698  0.12521786  0.61723633     0.38700
H58         H  0.42253672  0.34501508  0.40436350     0.33100
H59         H  0.50031199  0.25411022  0.34773190     0.32000
H60         H  0.55911295  0.19870956  0.37989035     0.33700
H61         H  0.63986793  0.11711340  0.52741464     0.32700
H62         H  0.50130856  0.39618997  0.48351654     0.36700
H63         H  0.56957243  0.40026744  0.50499200     0.29400
H64         H  0.44918731  0.07170635  0.48098937     0.33600
H65         H  0.60416763  0.06488470  0.55720061     0.36500
H66         H  0.46952776  0.26051732  0.36053681     0.29100
H67         H  0.56895653  0.40124741  0.54810765     0.42000
H68         H  0.47192816  0.27632941  0.59717179     0.32000
H69         H  0.43619215  0.31553343  0.52803619     0.39600
H70         H  0.61968296  0.14928671  0.48814780     0.31500
H71         H  0.56008025  0.15990401  0.64362458     0.31500
H72         H  0.48914862  0.06582201  0.51226611     0.31800
C73         C  0.17064584  0.19786547  0.35240660     0.81000
N74         N  0.20640940  0.19683301  0.37088755    -0.77300
C75         C  0.22471788  0.22102839  0.35374844     0.83400
N76         N  0.20727741  0.24631483  0.31812919    -0.77300
C77         C  0.17151453  0.24739395  0.29959059     0.83500
N78         N  0.15316308  0.22317282  0.31673724    -0.79000
C79         C  0.67076783  0.44751018  0.35211745     0.81000
N80         N  0.70654218  0.44665593  0.37055973    -0.77300
C81         C  0.72476468  0.47120851  0.35349273     0.83400
N82         N  0.70723037  0.49667415  0.31800380    -0.77300
C83         C  0.67146939  0.49755634  0.29950830     0.83500
N84         N  0.65320302  0.47297949  0.31656318    -0.79000
Zr85       Zr  0.98066082  0.41477637  0.48679209     2.17500
O86         O  0.97270710  0.32738834  0.48358522    -0.50600
O87         O  0.91855142  0.43583888  0.45368182    -0.73800
O88         O  0.96249181  0.38633738  0.53876021    -0.80500
O89         O  0.99384597  0.41583798  0.38803264    -0.82300
O90         O  0.99120604  0.43048512  0.59773935    -0.77900
O91         O  0.96468901  0.37689534  0.41978190    -0.89500
O92         O  0.91437570  0.01777226  0.44979408    -0.75500
O93         O  0.97688777  0.48533999  0.52257656    -0.85000
O94         O  0.97668354  0.48118017  0.44277640    -0.84700
O95         O  0.03336369  0.41474538  0.55109902    -0.71400
O96         O  0.03327566  0.41179094  0.47676302    -0.83600
Zr97       Zr  0.07860486  0.05176782  0.53294241     2.26400
Zr98       Zr  0.02990932  0.48701207  0.58596148     2.06300
Zr99       Zr  0.02946152  0.47960626  0.43366886     2.10000
Zr100      Zr  0.97343286  0.05148574  0.47875920     1.78800
O101        O  0.06550341  0.43605659  0.40721218    -0.92400
O102        O  0.94421566  0.09208668  0.51545048    -0.40200
O103        O  0.02595092  0.05145101  0.46868338    -0.76800
O104        O  0.02591890  0.05505537  0.54291777    -0.95500
O105        O  0.08261021  0.48527850  0.57677913    -0.88800
O106        O  0.08214547  0.48110084  0.49712460    -0.91700
C107        C  0.90096175  0.47533335  0.44381006     1.02100
C108        C  0.97268587  0.38343685  0.38948851     1.15000
C109        C  0.96963414  0.39740353  0.57636204     1.05800
O110        O  0.99710818  0.03364125  0.61501000    -0.93800
O111        O  0.06822931  0.04749537  0.63351726    -0.89600
O112        O  0.09808782  0.08545635  0.60215865    -0.82700
C113        C  0.09052463  0.07852564  0.63273781     1.12400
O114        O  0.08043165  0.32706783  0.54010234    -0.95800
Zr115      Zr  0.08579685  0.41479846  0.54089775     1.88900
O116        O  0.14074466  0.03059407  0.56526587    -0.72400
O117        O  0.06571039  0.44458988  0.65037288    -0.51700
O118        O  0.11249113  0.38463733  0.61190777    -0.96400
O119        O  0.11582617  0.37368128  0.50526194    -0.53600
O120        O  0.14480061  0.44866855  0.57049497    -0.73000
C121        C  0.15826597  0.49104921  0.57587206     0.99400
O122        O  0.08358054  0.13966660  0.53358280    -0.61800
O123        O  0.99358257  0.01996619  0.36817910    -0.56600
O124        O  0.09663095  0.08118049  0.48123498    -0.93300
O125        O  0.06582133  0.03956422  0.42122738    -0.91700
O126        O  0.94623240  0.08371055  0.40848849    -0.92000
O127        O  0.97718485  0.13918836  0.47816676    -0.90800
C128        C  0.08809746  0.07180855  0.44296715     1.18200
H129        H  0.95618325  0.47848076  0.41636846     0.34200
H130        H  0.02550678  0.08457277  0.55705309     0.45000
H131        H  0.10254142  0.48212790  0.49152577     0.38600
H132        H  0.03372463  0.38667031  0.56726329     0.35000
H133        H  0.92228004  0.10546219  0.49329242     0.26800
H134        H  0.05429986  0.45167125  0.66872030     0.32800
H135        H  0.13680459  0.37544185  0.61732702     0.38700
H136        H  0.92320770  0.09660923  0.40500052     0.33100
H137        H  0.00025662  0.00437395  0.34779549     0.32000
H138        H  0.05885038  0.44982040  0.37928780     0.33700
H139        H  0.13992960  0.36721871  0.52705204     0.32700
H140        H  0.00264835  0.14602345  0.48835639     0.36700
H141        H  0.06952492  0.14984782  0.50443565     0.29400
H142        H  0.94853883  0.32197968  0.48071074     0.33600
H143        H  0.10449864  0.31466641  0.55728988     0.36500
H144        H  0.96915317  0.00893571  0.36024979     0.29100
H145        H  0.06963377  0.15139310  0.54791159     0.42000
H146        H  0.97202709  0.02641283  0.59687687     0.32000
H147        H  0.93605952  0.06565235  0.52769873     0.41600
H148        H  0.11906497  0.39854995  0.48741295     0.31500
H149        H  0.06105134  0.40986850  0.64363685     0.31500
H150        H  0.98852650  0.31545517  0.51168737     0.31800
C151        C  0.38771388  0.01938561  0.66646250     0.81000
N152        N  0.35198076  0.02035083  0.64928509    -0.77300
C153        C  0.33446986  0.99373834  0.66604147     0.83400
N154        N  0.35269556  0.46604913  0.69999655    -0.77300
C155        C  0.38845976  0.46505102  0.71723551     0.83500
N156        N  0.40598170  0.49170829  0.70044398    -0.79000
C157        C  0.89468337  0.19763684  0.16669754     0.81000
N158        N  0.91213967  0.22291795  0.20237874    -0.77300
C159        C  0.89376157  0.24733405  0.21937642     0.83400
N160        N  0.85800003  0.24650206  0.20068590    -0.77300
C161        C  0.84057469  0.22121999  0.16506753     0.83500
N162        N  0.85891015  0.19681737  0.14806508    -0.79000
Zr163      Zr  0.58468516  0.16490778  0.03196743     2.17500
O164        O  0.59274608  0.07753720  0.03543746    -0.50600
O165        O  0.64677636  0.18630867  0.06493458    -0.73800
O166        O  0.60291968  0.13631133  0.98010801    -0.80500
O167        O  0.57132473  0.16583765  0.13060488    -0.82300
O168        O  0.57394036  0.18005515  0.92094444    -0.77900
O169        O  0.60086654  0.12726464  0.09914299    -0.89500
O170        O  0.65089218  0.26826716  0.06816671    -0.75500
O171        O  0.58840842  0.23541414  0.99608893    -0.85000
O172        O  0.58855111  0.23136422  0.07585263    -0.84700
O173        O  0.53194828  0.16474390  0.96763008    -0.71400
O174        O  0.53200023  0.16182870  0.04187769    -0.83600
Zr175      Zr  0.48668911  0.30178958  0.98567188     2.26400
Zr176      Zr  0.53539091  0.23693473  0.93267251     2.06300
Zr177      Zr  0.53576814  0.22963552  0.08495153     2.10000
Zr178      Zr  0.59176964  0.30164703  0.03980355     1.78800
O179        O  0.49969009  0.18581162  0.11119556    -0.92400
O180        O  0.61993190  0.34325955  0.00239172    -0.40200
O181        O  0.53929113  0.30146043  0.04993071    -0.76800
O182        O  0.53931789  0.30505961  0.97559995    -0.95500
O183        O  0.48269698  0.23527742  0.94184962    -0.88800
O184        O  0.48313534  0.23116458  0.02149078    -0.91700
C185        C  0.66434190  0.22584395  0.07441395     1.02100
C186        C  0.59268112  0.13363918  0.12931322     1.15000
C187        C  0.59563758  0.14714233  0.94242319     1.05800
O188        O  0.56854814  0.28342987  0.90402076    -0.93800
O189        O  0.49691746  0.29737366  0.88513173    -0.89600
O190        O  0.46683986  0.33514917  0.91632029    -0.82700
C191        C  0.47448288  0.32825893  0.88579773     1.12400
O192        O  0.48492378  0.07714864  0.97864244    -0.95800
Zr193      Zr  0.47944965  0.16486779  0.97772609     1.88900
O194        O  0.42453673  0.28086542  0.95358187    -0.72400
O195        O  0.49966024  0.19499389  0.86796809    -0.51700
O196        O  0.45259597  0.13467375  0.90672629    -0.96400
O197        O  0.44892329  0.12437242  0.01307566    -0.53600
O198        O  0.42048345  0.19896281  0.94801728    -0.73000
C199        C  0.40701608  0.24133658  0.94284083     0.99400
O200        O  0.48235034  0.38971630  0.98543842    -0.61800
O201        O  0.57165064  0.27013685  0.15036206    -0.56600
O202        O  0.46865296  0.33137686  0.03731618    -0.93300
O203        O  0.49915311  0.28939924  0.09721165    -0.91700
O204        O  0.61966411  0.33292195  0.11037180    -0.92000
O205        O  0.58799185  0.38927512  0.04176937    -0.90800
C206        C  0.47700925  0.32181541  0.07551404     1.18200
H207        H  0.60905994  0.22872944  0.10226036     0.34200
H208        H  0.53968901  0.33452910  0.96138497     0.45000
H209        H  0.46273639  0.23223920  0.02707901     0.38600
H210        H  0.53159628  0.13663882  0.95150045     0.35000
H211        H  0.64205064  0.35649815  0.02431869     0.26800
H212        H  0.51124919  0.20204592  0.84980179     0.32800
H213        H  0.42827242  0.12560300  0.90136137     0.38700
H214        H  0.64252672  0.34614231  0.11358249     0.33100
H215        H  0.56442813  0.25533970  0.17058539     0.32000
H216        H  0.50636920  0.19936396  0.13919444     0.33700
H217        H  0.42531938  0.11632929  0.99086983     0.32700
H218        H  0.56280984  0.39665403  0.02433303     0.36700
H219        H  0.49692532  0.39965642  0.01454048     0.29400
H220        H  0.61694122  0.07215312  0.03839337     0.33600
H221        H  0.46087070  0.06469422  0.96147300     0.36500
H222        H  0.59596153  0.25828870  0.15875569     0.29100
H223        H  0.49593760  0.40125015  0.97060880     0.42000
H224        H  0.59354532  0.27525519  0.92171679     0.32000
H225        H  0.62780738  0.31713577  0.98955910     0.39600
H226        H  0.44438398  0.14983532  0.02949422     0.31500
H227        H  0.50411937  0.16021699  0.87457359     0.31500
H228        H  0.57698407  0.06549794  0.00735277     0.31800
C229        C  0.17742941  0.26911703  0.85217947     0.81000
N230        N  0.21316894  0.27012564  0.86951873    -0.77300
C231        C  0.23079965  0.24366707  0.85281484     0.83400
N232        N  0.21268639  0.21608085  0.81875232    -0.77300
C233        C  0.17691783  0.21503011  0.80136486     0.83500
N234        N  0.15928187  0.24153939  0.81809933    -0.79000
C235        C  0.67738458  0.01951271  0.85176248     0.81000
N236        N  0.71312155  0.02062349  0.86911821    -0.77300
C237        C  0.73080176  0.99408077  0.85253331     0.83400
N238        N  0.71274884  0.46628506  0.81860113    -0.77300
C239        C  0.67698667  0.46513067  0.80120301     0.83500
N240        N  0.65929202  0.99172656  0.81780669    -0.79000
C241        C  0.39457672  0.44782977  0.16631968     0.81000
N242        N  0.41204393  0.47282734  0.20217008    -0.77300
C243        C  0.39367467  0.49692362  0.21936789     0.83400
N244        N  0.35790521  0.49602439  0.20069810    -0.77300
C245        C  0.34047800  0.47105521  0.16489301     0.83500
N246        N  0.35880980  0.44699835  0.14770648    -0.79000
Zr247      Zr  0.08451883  0.41482585  0.03198108     2.17500
O248        O  0.09235316  0.32742933  0.03485778    -0.50600
O249        O  0.14664109  0.43583981  0.06510931    -0.73800
O250        O  0.10285485  0.38663928  0.98005141    -0.80500
O251        O  0.07149409  0.41627581  0.13090238    -0.82300
O252        O  0.07394726  0.43043034  0.92090470    -0.77900
O253        O  0.10043821  0.37699701  0.09905414    -0.89500
O254        O  0.15087399  0.01779284  0.06800085    -0.75500
O255        O  0.08838456  0.48535426  0.99622069    -0.85000
O256        O  0.08845269  0.48126099  0.07594578    -0.84700
O257        O  0.03184630  0.41483735  0.96762916    -0.71400
O258        O  0.03184780  0.41186689  0.04191061    -0.83600
Zr259      Zr  0.98666664  0.05190902  0.98573007     2.26400
Zr260      Zr  0.03539115  0.48707334  0.93280105     2.06300
Zr261      Zr  0.03561651  0.47969992  0.08496150     2.10000
Zr262      Zr  0.09184703  0.05153380  0.03999812     1.78800
O263        O  0.99920239  0.43540902  0.11045414    -0.92400
O264        O  0.12015885  0.09311758  0.00273029    -0.40200
O265        O  0.03928791  0.05148893  0.04997674    -0.76800
O266        O  0.03937606  0.05519163  0.97578106    -0.95500
O267        O  0.98269721  0.48540861  0.94194341    -0.88800
O268        O  0.98298388  0.48129935  0.02148022    -0.91700
C269        C  0.16426017  0.47532437  0.07436297     1.02100
C270        C  0.09256655  0.38373060  0.12943364     1.15000
C271        C  0.09564462  0.39753237  0.94239156     1.05800
O272        O  0.06832947  0.03345483  0.90379073    -0.93800
O273        O  0.99688674  0.04733605  0.88518915    -0.89600
O274        O  0.96659882  0.08485344  0.91622641    -0.82700
C275        C  0.97428701  0.07799086  0.88574112     1.12400
O276        O  0.98484995  0.32728001  0.97806654    -0.95800
Zr277      Zr  0.97936121  0.41496893  0.97772920     1.88900
O278        O  0.92452538  0.03082255  0.95364334    -0.72400
O279        O  0.99948515  0.44496928  0.86825944    -0.51700
O280        O  0.95239598  0.38494863  0.90668233    -0.96400
O281        O  0.94915496  0.37422355  0.01333716    -0.53600
O282        O  0.92039454  0.44893197  0.94795768    -0.73000
C283        C  0.90697231  0.49132197  0.94282446     0.99400
O284        O  0.98189420  0.13981498  0.98481119    -0.61800
O285        O  0.07078809  0.02044332  0.15046786    -0.56600
O286        O  0.96885507  0.08175918  0.03750917    -0.93300
O287        O  0.99923690  0.03967171  0.09736640    -0.91700
O288        O  0.11979342  0.08246253  0.11068633    -0.92000
O289        O  0.08846174  0.13917539  0.04234323    -0.90800
C290        C  0.97720157  0.07220655  0.07570856     1.18200
H291        H  0.10894052  0.47856195  0.10236746     0.34200
H292        H  0.03977547  0.08468011  0.96160269     0.45000
H293        H  0.96257257  0.48240667  0.02704564     0.38600
H294        H  0.03148890  0.38675996  0.95146822     0.35000
H295        H  0.14211317  0.10669597  0.02470170     0.26800
H296        H  0.01093769  0.45202438  0.84995125     0.32800
H297        H  0.92827452  0.37511901  0.90158503     0.38700
H298        H  0.14297279  0.09479200  0.11422225     0.33100
H299        H  0.06466885  0.00392984  0.17093201     0.32000
H300        H  0.00541078  0.44908175  0.13830787     0.33700
H301        H  0.92539672  0.36655940  0.99128719     0.32700
H302        H  0.06304488  0.14658087  0.02670808     0.36700
H303        H  0.99644448  0.15008164  0.01382504     0.29400
H304        H  0.11654905  0.32202059  0.03782440     0.33600
H305        H  0.96066822  0.31480312  0.96166657     0.36500
H306        H  0.09543268  0.01066124  0.15813008     0.29100
H307        H  0.99539634  0.15130016  0.96986252     0.42000
H308        H  0.09336968  0.02561888  0.92159611     0.32000
H309        H  0.12833026  0.06697220  0.99022480     0.39600
H310        H  0.94497486  0.39952761  0.03015987     0.31500
H311        H  0.00401867  0.41021118  0.87490079     0.31500
H312        H  0.07659333  0.31565880  0.00667570     0.31800
C313        C  0.30267017  0.47020756  0.14515953    -0.17700
C314        C  0.27090682  0.46990710  0.12871216     0.06300
C315        C  0.23371927  0.47039002  0.10963986     0.08200
C316        C  0.20197387  0.47189553  0.09346959    -0.18600
C317        C  0.86926725  0.49454808  0.92344008    -0.17700
C318        C  0.83752144  0.49558850  0.90695886     0.06300
C319        C  0.80034648  0.49551960  0.88759930     0.08200
C320        C  0.76859273  0.49494067  0.87129078    -0.18600
C321        C  0.11299721  0.37045802  0.92256004    -0.17700
C322        C  0.12729620  0.34742505  0.90573166     0.06300
C323        C  0.14414463  0.32022898  0.88627328     0.08200
C324        C  0.15895659  0.29689737  0.87023634    -0.18600
C325        C  0.36929770  0.24450402  0.92348414    -0.17700
C326        C  0.33754411  0.24547081  0.90702921     0.06300
C327        C  0.30035858  0.24526487  0.88772010     0.08200
C328        C  0.26859962  0.24456791  0.87148163    -0.18600
C329        C  0.65886914  0.04715061  0.86983821    -0.17700
C330        C  0.64403902  0.07023152  0.88599221     0.06300
C331        C  0.62719600  0.09712166  0.90562076     0.08200
C332        C  0.61292485  0.12002225  0.92255013    -0.18600
C333        C  0.46019188  0.34957402  0.09559991    -0.17700
C334        C  0.44596631  0.37274803  0.11244128     0.06300
C335        C  0.42894128  0.39956469  0.13191957     0.08200
C336        C  0.41377578  0.42198133  0.14805902    -0.18600
C337        C  0.70206570  0.22252039  0.09366252    -0.17700
C338        C  0.73381288  0.22099242  0.10990810     0.06300
C339        C  0.77100134  0.22034864  0.12895933     0.08200
C340        C  0.80276603  0.22047550  0.14533759    -0.18600
C341        C  0.96047473  0.10005593  0.09584305    -0.17700
C342        C  0.94627418  0.12311092  0.11277760     0.06300
C343        C  0.92918557  0.14962835  0.13234064     0.08200
C344        C  0.91392102  0.17180420  0.14848692    -0.18600
C345        C  0.40769067  0.43580907  0.75323499    -0.17700
C346        C  0.42341886  0.41118967  0.78354349     0.06300
C347        C  0.44142798  0.38229164  0.81911351     0.08200
C348        C  0.45656448  0.35758549  0.84951979    -0.18600
C349        C  0.29667548  0.49455217  0.64751669    -0.17700
C350        C  0.26491752  0.49514776  0.63131190     0.06300
C351        C  0.22773455  0.49523451  0.61192928     0.08200
C352        C  0.19598341  0.49421574  0.59535294    -0.18600
C353        C  0.15778044  0.18582033  0.76532209    -0.17700
C354        C  0.14196312  0.16126653  0.73500013     0.06300
C355        C  0.12373916  0.13249788  0.69940919     0.08200
C356        C  0.10845333  0.10788128  0.66898582    -0.18600
C357        C  0.95655180  0.35218395  0.35422257    -0.17700
C358        C  0.94288104  0.32681068  0.32401107     0.06300
C359        C  0.92652132  0.29812820  0.28803184     0.08200
C360        C  0.91200508  0.27448119  0.25687722    -0.18600
C361        C  0.86325138  0.47195649  0.42443638    -0.17700
C362        C  0.83150850  0.47049403  0.40817100     0.06300
C363        C  0.79432710  0.47003936  0.38919741     0.08200
C364        C  0.76256741  0.47033703  0.37297227    -0.18600
C365        C  0.65311768  0.02480860  0.26208241    -0.17700
C366        C  0.63860966  0.04847268  0.23093040     0.06300
C367        C  0.62235471  0.07710800  0.19489560     0.08200
C368        C  0.60878656  0.10242311  0.16462386    -0.18600
C369        C  0.15324639  0.27459866  0.26208906    -0.17700
C370        C  0.13873572  0.29832421  0.23095488     0.06300
C371        C  0.12239068  0.32710706  0.19499174     0.08200
C372        C  0.10872806  0.35251423  0.16477210    -0.18600
C373        C  0.10487926  0.09956891  0.42286017    -0.17700
C374        C  0.11913365  0.12273677  0.40606122     0.06300
C375        C  0.13623593  0.14954277  0.38668856     0.08200
C376        C  0.15145617  0.17196049  0.37062887    -0.18600
C377        C  0.36318514  0.22179179  0.42473188    -0.17700
C378        C  0.33144711  0.22024949  0.40860788     0.06300
C379        C  0.29427060  0.21973046  0.38966904     0.08200
C380        C  0.26251371  0.22004738  0.37335018    -0.18600
C381        C  0.65793730  0.43557913  0.76538078    -0.17700
C382        C  0.64225763  0.41073178  0.73522623     0.06300
C383        C  0.62418946  0.38176753  0.69974080     0.08200
C384        C  0.60892993  0.35718938  0.66929720    -0.18600
C385        C  0.45649234  0.10214659  0.35413359    -0.17700
C386        C  0.44284566  0.07658242  0.32401031     0.06300
C387        C  0.42647283  0.04767133  0.28812332     0.08200
C388        C  0.41193695  0.02395095  0.25698459    -0.18600
C389        C  0.40604177  0.04730536  0.64832133    -0.17700
C390        C  0.42072242  0.07073447  0.63219266     0.06300
C391        C  0.43746345  0.09798981  0.61265938     0.08200
C392        C  0.45174726  0.12100606  0.59581603    -0.18600
C393        C  0.65162903  0.42145990  0.37034787    -0.17700
C394        C  0.63633843  0.39918260  0.38641469     0.06300
C395        C  0.61913472  0.37267571  0.40586200     0.08200
C396        C  0.60483185  0.34971701  0.42274147    -0.18600
C397        C  0.79668965  0.24491949  0.64743966    -0.17700
C398        C  0.76492430  0.24552703  0.63116426     0.06300
C399        C  0.72772846  0.24559378  0.61176963     0.08200
C400        C  0.69596888  0.24455807  0.59523669    -0.18600
C401        C  0.95621326  0.10704723  0.84935452    -0.17700
C402        C  0.94100392  0.13157274  0.81886416     0.06300
C403        C  0.92301977  0.16045197  0.78329915     0.08200
C404        C  0.90738824  0.18524528  0.75309265    -0.18600
C405        C  0.90640674  0.29706802  0.64875609    -0.17700
C406        C  0.92123362  0.32029133  0.63267943     0.06300
C407        C  0.93807535  0.34735331  0.61314607     0.08200
C408        C  0.95234461  0.37033052  0.59625778    -0.18600
C409        C  0.88790227  0.76932282  0.66678643     0.81000
N410        N  0.85216548  0.77053398  0.64952225    -0.77300
C411        C  0.83449563  0.74396525  0.66610938     0.83400
N412        N  0.85256877  0.71605714  0.69996303    -0.77300
C413        C  0.88832901  0.71480315  0.71727235     0.83500
N414        N  0.90600871  0.74142221  0.70066329    -0.79000
Zr415      Zr  0.48065303  0.66488377  0.48671283     2.17500
O416        O  0.47337130  0.57740538  0.48402553    -0.50600
O417        O  0.41852046  0.68578111  0.45343404    -0.73800
O418        O  0.46214987  0.63678076  0.53847262    -0.80500
O419        O  0.49363981  0.66606718  0.38790274    -0.82300
O420        O  0.49077777  0.68096694  0.59745236    -0.77900
O421        O  0.46466041  0.62686373  0.41973781    -0.89500
O422        O  0.41425313  0.76772863  0.45014809    -0.75500
O423        O  0.47676309  0.73538678  0.52247578    -0.85000
O424        O  0.47664029  0.73130600  0.44271403    -0.84700
O425        O  0.53328769  0.66499199  0.55110044    -0.71400
O426        O  0.53332183  0.66199699  0.47682806    -0.83600
Zr427      Zr  0.57850612  0.80198419  0.53291709     2.26400
Zr428      Zr  0.52972550  0.73723289  0.58588582     2.06300
Zr429      Zr  0.52945513  0.72972397  0.43367490     2.10000
Zr430      Zr  0.47327321  0.80155894  0.47871764     1.78800
O431        O  0.56552224  0.68518474  0.40783925    -0.92400
O432        O  0.44434521  0.84201691  0.51583084    -0.40200
O433        O  0.52583001  0.80153031  0.46869841    -0.76800
O434        O  0.52578137  0.80528709  0.54286065    -0.95500
O435        O  0.58245495  0.73557091  0.57678840    -0.88800
O436        O  0.58211422  0.73133766  0.49716789    -0.91700
C437        C  0.40088800  0.72525103  0.44392308     1.02100
C438        C  0.47257916  0.63350672  0.38939149     1.15000
C439        C  0.46917631  0.64794468  0.57602277     1.05800
O440        O  0.49701370  0.78375310  0.61511693    -0.93800
O441        O  0.56823481  0.79748109  0.63350363    -0.89600
O442        O  0.59853366  0.83492499  0.60243552    -0.82700
C443        C  0.59084190  0.82810832  0.63292875     1.12400
O444        O  0.58007350  0.57744561  0.54043368    -0.95800
Zr445      Zr  0.58578192  0.66510557  0.54102823     1.88900
O446        O  0.64067860  0.78085241  0.56492858    -0.72400
O447        O  0.56531580  0.69455684  0.65022729    -0.51700
O448        O  0.61261734  0.63507727  0.61208051    -0.96400
O449        O  0.61594671  0.62418889  0.50546497    -0.53600
O450        O  0.64479620  0.69897512  0.57078008    -0.73000
C451        C  0.65823812  0.74135100  0.57582719     0.99400
O452        O  0.58329341  0.88989777  0.53414651    -0.61800
O453        O  0.49414000  0.77047896  0.36821367    -0.56600
O454        O  0.59632093  0.83165596  0.48105088    -0.93300
O455        O  0.56596256  0.78947477  0.42123772    -0.91700
O456        O  0.44600514  0.83342176  0.40832760    -0.92000
O457        O  0.47655471  0.88928481  0.47768769    -0.90800
C458        C  0.58801593  0.82200675  0.44287149     1.18200
H459        H  0.45615359  0.72859703  0.41629318     0.34200
H460        H  0.52537348  0.83480847  0.55699523     0.45000
H461        H  0.60252181  0.73239475  0.49159350     0.38600
H462        H  0.53362891  0.63693257  0.56727185     0.35000
H463        H  0.42239348  0.85554824  0.49381817     0.26800
H464        H  0.55425803  0.70240525  0.66879897     0.32800
H465        H  0.63674720  0.62521865  0.61723666     0.38700
H466        H  0.42253745  0.84501700  0.40436418     0.33100
H467        H  0.50031125  0.75410913  0.34773156     0.32000
H468        H  0.55911284  0.69870843  0.37989044     0.33700
H469        H  0.63986793  0.61711357  0.52741531     0.32700
H470        H  0.50130877  0.89618983  0.48351618     0.36700
H471        H  0.56956977  0.90026677  0.50499046     0.29400
H472        H  0.44918603  0.57170726  0.48098892     0.33600
H473        H  0.60416816  0.56488512  0.55720139     0.36500
H474        H  0.46952795  0.76051947  0.36053768     0.29100
H475        H  0.56895423  0.90124715  0.54810634     0.42000
H476        H  0.47192788  0.77632932  0.59717184     0.32000
H477        H  0.43619267  0.81553345  0.52803711     0.39600
H478        H  0.61968314  0.64928679  0.48814831     0.31500
H479        H  0.56008143  0.65990359  0.64362421     0.31500
H480        H  0.48914720  0.56582223  0.51226614     0.31800
C481        C  0.17064587  0.69786601  0.35240691     0.81000
N482        N  0.20640944  0.69683373  0.37088783    -0.77300
C483        C  0.22471781  0.72102892  0.35374848     0.83400
N484        N  0.20727723  0.74631500  0.31812904    -0.77300
C485        C  0.17151435  0.74739400  0.29959050     0.83500
N486        N  0.15316301  0.72317305  0.31673740    -0.79000
C487        C  0.67076763  0.94751008  0.35211685     0.81000
N488        N  0.70654196  0.94665567  0.37055919    -0.77300
C489        C  0.72476459  0.97120830  0.35349236     0.83400
N490        N  0.70723039  0.99667415  0.31800354    -0.77300
C491        C  0.67146941  0.99755632  0.29950785     0.83500
N492        N  0.65320291  0.97297941  0.31656255    -0.79000
Zr493      Zr  0.98066067  0.91477626  0.48679196     2.17500
O494        O  0.97270674  0.82738821  0.48358459    -0.50600
O495        O  0.91855129  0.93583904  0.45368210    -0.73800
O496        O  0.96249170  0.88633705  0.53876008    -0.80500
O497        O  0.99384604  0.91583771  0.38803245    -0.82300
O498        O  0.99120590  0.93048491  0.59773917    -0.77900
O499        O  0.96468830  0.87689611  0.41978127    -0.89500
O500        O  0.91437569  0.51777211  0.44979466    -0.75500
O501        O  0.97688761  0.98533998  0.52257631    -0.85000
O502        O  0.97668375  0.98118004  0.44277642    -0.84700
O503        O  0.03336360  0.91474499  0.55109897    -0.71400
O504        O  0.03327562  0.91179062  0.47676305    -0.83600
Zr505      Zr  0.07860475  0.55176818  0.53294232     2.26400
Zr506      Zr  0.02990915  0.98701188  0.58596130     2.06300
Zr507      Zr  0.02946170  0.97960581  0.43366886     2.10000
Zr508      Zr  0.97343266  0.55148579  0.47875935     1.78800
O509        O  0.06550370  0.93605589  0.40721250    -0.92400
O510        O  0.94421534  0.59208699  0.51545043    -0.40200
O511        O  0.02595067  0.55145131  0.46868348    -0.76800
O512        O  0.02591881  0.55505551  0.54291778    -0.95500
O513        O  0.08261011  0.98527814  0.57677910    -0.88800
O514        O  0.08214561  0.98110048  0.49712460    -0.91700
C515        C  0.90096168  0.97533353  0.44380985     1.02100
C516        C  0.97268544  0.88343717  0.38948806     1.15000
C517        C  0.96963404  0.89740325  0.57636192     1.05800
O518        O  0.99710848  0.53364072  0.61501070    -0.93800
O519        O  0.06822924  0.54749580  0.63351726    -0.89600
O520        O  0.09808763  0.58545678  0.60215850    -0.82700
C521        C  0.09052449  0.57852609  0.63273769     1.12400
O522        O  0.08043123  0.82706758  0.54010204    -0.95800
Zr523      Zr  0.08579688  0.91479816  0.54089774     1.88900
O524        O  0.14074450  0.53059403  0.56526561    -0.72400
O525        O  0.06570989  0.94459035  0.65037315    -0.51700
O526        O  0.11249107  0.88463737  0.61190782    -0.96400
O527        O  0.11582623  0.87368025  0.50526231    -0.53600
O528        O  0.14480069  0.94866853  0.57049469    -0.73000
C529        C  0.15826611  0.99104921  0.57587206     0.99400
O530        O  0.08358133  0.63966694  0.53358275    -0.61800
O531        O  0.99358208  0.51996702  0.36817938    -0.56600
O532        O  0.09663069  0.58118057  0.48123462    -0.93300
O533        O  0.06582111  0.53956433  0.42122700    -0.91700
O534        O  0.94623203  0.58370997  0.40848842    -0.92000
O535        O  0.97718437  0.63918843  0.47816703    -0.90800
C536        C  0.08809723  0.57180864  0.44296680     1.18200
H537        H  0.95618357  0.97848072  0.41636859     0.34200
H538        H  0.02550666  0.58457290  0.55705308     0.45000
H539        H  0.10254158  0.98212754  0.49152579     0.38600
H540        H  0.03372447  0.88666977  0.56726335     0.35000
H541        H  0.92227945  0.60546176  0.49329236     0.26800
H542        H  0.05429871  0.95167112  0.66872005     0.32800
H543        H  0.13680455  0.87544188  0.61732713     0.38700
H544        H  0.92320710  0.59660798  0.40500021     0.33100
H545        H  0.00025496  0.50437362  0.34779526     0.32000
H546        H  0.05885230  0.94982163  0.37928910     0.33700
H547        H  0.13992963  0.86721757  0.52705253     0.32700
H548        H  0.00264817  0.64602377  0.48835999     0.36700
H549        H  0.06952533  0.64984832  0.50443571     0.29400
H550        H  0.94853854  0.82197946  0.48071035     0.33600
H551        H  0.10449799  0.81466594  0.55729042     0.36500
H552        H  0.96915250  0.50893799  0.36025102     0.29100
H553        H  0.06963519  0.65139390  0.54791212     0.42000
H554        H  0.97202739  0.52641272  0.59687725     0.32000
H555        H  0.93605976  0.56565280  0.52769936     0.41600
H556        H  0.11906519  0.89854874  0.48741333     0.31500
H557        H  0.06105150  0.90986888  0.64363713     0.31500
H558        H  0.98852631  0.81545487  0.51168654     0.31800
C559        C  0.38771378  0.51938539  0.66646254     0.81000
N560        N  0.35198067  0.52035068  0.64928504    -0.77300
C561        C  0.33446966  0.49373823  0.66604133     0.83400
N562        N  0.35269587  0.96604936  0.69999678    -0.77300
C563        C  0.38846007  0.96505120  0.71723556     0.83500
N564        N  0.40598189  0.99170845  0.70044387    -0.79000
C565        C  0.89468326  0.69763655  0.16669758     0.81000
N566        N  0.91213947  0.72291765  0.20237880    -0.77300
C567        C  0.89376129  0.74733351  0.21937651     0.83400
N568        N  0.85799977  0.74650137  0.20068596    -0.77300
C569        C  0.84057450  0.72121924  0.16506760     0.83500
N570        N  0.85891003  0.69681681  0.14806513    -0.79000
Zr571      Zr  0.58468520  0.66490780  0.03196763     2.17500
O572        O  0.59274658  0.57753728  0.03543781    -0.50600
O573        O  0.64677632  0.68630933  0.06493464    -0.73800
O574        O  0.60291974  0.63631108  0.98010837    -0.80500
O575        O  0.57132502  0.66583770  0.13060521    -0.82300
O576        O  0.57394045  0.68005501  0.92094490    -0.77900
O577        O  0.60086678  0.62726472  0.09914327    -0.89500
O578        O  0.65089214  0.76826782  0.06816702    -0.75500
O579        O  0.58840842  0.73541416  0.99608914    -0.85000
O580        O  0.58855118  0.73136431  0.07585264    -0.84700
O581        O  0.53194833  0.66474391  0.96763025    -0.71400
O582        O  0.53200025  0.66182879  0.04187782    -0.83600
Zr583      Zr  0.48668906  0.80178964  0.98567195     2.26400
Zr584      Zr  0.53539089  0.73693467  0.93267270     2.06300
Zr585      Zr  0.53576840  0.72963555  0.08495178     2.10000
Zr586      Zr  0.59176952  0.80164718  0.03980357     1.78800
O587        O  0.49969075  0.68581092  0.11119586    -0.92400
O588        O  0.61993111  0.84325992  0.00239109    -0.40200
O589        O  0.53929105  0.80146048  0.04993071    -0.76800
O590        O  0.53931781  0.80505970  0.97560000    -0.95500
O591        O  0.48269691  0.73527749  0.94184965    -0.88800
O592        O  0.48313555  0.73116459  0.02149100    -0.91700
C593        C  0.66434184  0.72584462  0.07441418     1.02100
C594        C  0.59268143  0.63363925  0.12931355     1.15000
C595        C  0.59563768  0.64714214  0.94242360     1.05800
O596        O  0.56854764  0.78342931  0.90402011    -0.93800
O597        O  0.49691726  0.79737326  0.88513172    -0.89600
O598        O  0.46684002  0.83514950  0.91632039    -0.82700
C599        C  0.47448288  0.82825890  0.88579775     1.12400
O600        O  0.48492449  0.57714877  0.97864336    -0.95800
Zr601      Zr  0.47944969  0.66486785  0.97772616     1.88900
O602        O  0.42453669  0.78086568  0.95358210    -0.72400
O603        O  0.49966031  0.69499331  0.86796850    -0.51700
O604        O  0.45259639  0.63467381  0.90672634    -0.96400
O605        O  0.44892254  0.62437259  0.01307492    -0.53600
O606        O  0.42048358  0.69896311  0.94801686    -0.73000
C607        C  0.40701611  0.74133680  0.94284066     0.99400
O608        O  0.48235035  0.88971638  0.98543809    -0.61800
O609        O  0.57165143  0.77013726  0.15036204    -0.56600
O610        O  0.46865349  0.83137674  0.03731689    -0.93300
O611        O  0.49915351  0.78939897  0.09721233    -0.91700
O612        O  0.61966239  0.83292235  0.11037178    -0.92000
O613        O  0.58799281  0.88927525  0.04177029    -0.90800
C614        C  0.47700980  0.82181528  0.07551477     1.18200
H615        H  0.60905994  0.72872961  0.10226019     0.34200
H616        H  0.53968893  0.83452915  0.96138498     0.45000
H617        H  0.46273663  0.73223918  0.02707929     0.38600
H618        H  0.53159629  0.63663895  0.95150056     0.35000
H619        H  0.64204982  0.85649880  0.02431782     0.26800
H620        H  0.51124917  0.70204532  0.84980208     0.32800
H621        H  0.42827311  0.62560173  0.90136168     0.38700
H622        H  0.64252587  0.84614092  0.11358387     0.33100
H623        H  0.56442761  0.75534245  0.17058511     0.32000
H624        H  0.50636882  0.69936456  0.13919412     0.33700
H625        H  0.42531842  0.61633059  0.99086900     0.32700
H626        H  0.56281087  0.89665469  0.02433402     0.36700
H627        H  0.49692432  0.89965661  0.01454037     0.29400
H628        H  0.61694178  0.57215342  0.03839385     0.33600
H629        H  0.46087152  0.56469404  0.96147374     0.36500
H630        H  0.59596190  0.75828678  0.15875676     0.29100
H631        H  0.49593873  0.90125002  0.97060973     0.42000
H632        H  0.59354485  0.77525456  0.92171591     0.32000
H633        H  0.62780666  0.81713622  0.98955843     0.39600
H634        H  0.44438387  0.64983521  0.02949419     0.31500
H635        H  0.50411959  0.66021644  0.87457409     0.31500
H636        H  0.57698467  0.56549787  0.00735312     0.31800
C637        C  0.17742926  0.76911675  0.85217945     0.81000
N638        N  0.21316880  0.77012536  0.86951879    -0.77300
C639        C  0.23079957  0.74366682  0.85281497     0.83400
N640        N  0.21268636  0.71608058  0.81875244    -0.77300
C641        C  0.17691779  0.71502974  0.80136499     0.83500
N642        N  0.15928177  0.74153906  0.81809936    -0.79000
C643        C  0.67738455  0.51951291  0.85176224     0.81000
N644        N  0.71312153  0.52062358  0.86911813    -0.77300
C645        C  0.73080182  0.49408066  0.85253347     0.83400
N646        N  0.71274868  0.96628540  0.81860085    -0.77300
C647        C  0.67698652  0.96513083  0.80120293     0.83500
N648        N  0.65929208  0.49172672  0.81780646    -0.79000
C649        C  0.39457690  0.94783015  0.16631970     0.81000
N650        N  0.41204411  0.97282774  0.20217008    -0.77300
C651        C  0.39367485  0.99692406  0.21936785     0.83400
N652        N  0.35790539  0.99602483  0.20069807    -0.77300
C653        C  0.34047817  0.97105562  0.16489301     0.83500
N654        N  0.35880997  0.94699872  0.14770648    -0.79000
Zr655      Zr  0.08451889  0.91482577  0.03198122     2.17500
O656        O  0.09235306  0.82742916  0.03485779    -0.50600
O657        O  0.14664117  0.93583966  0.06510965    -0.73800
O658        O  0.10285506  0.88663939  0.98005161    -0.80500
O659        O  0.07149401  0.91627624  0.13090240    -0.82300
O660        O  0.07394716  0.93043006  0.92090472    -0.77900
O661        O  0.10043819  0.87699730  0.09905430    -0.89500
O662        O  0.15087401  0.51779299  0.06800019    -0.75500
O663        O  0.08838449  0.98535408  0.99622067    -0.85000
O664        O  0.08845258  0.98126099  0.07594578    -0.84700
O665        O  0.03184636  0.91483695  0.96762925    -0.71400
O666        O  0.03184788  0.91186699  0.04191086    -0.83600
Zr667      Zr  0.98666674  0.55190912  0.98573009     2.26400
Zr668      Zr  0.03539103  0.98707297  0.93280106     2.06300
Zr669      Zr  0.03561643  0.97970021  0.08496148     2.10000
Zr670      Zr  0.09184710  0.55153400  0.03999810     1.78800
O671        O  0.99920216  0.93540941  0.11045387    -0.92400
O672        O  0.12015831  0.59311802  0.00272965    -0.40200
O673        O  0.03928798  0.55148869  0.04997679    -0.76800
O674        O  0.03937616  0.55519214  0.97578098    -0.95500
O675        O  0.98269712  0.98540835  0.94194347    -0.88800
O676        O  0.98298373  0.98129935  0.02148028    -0.91700
C677        C  0.16426022  0.97532422  0.07436359     1.02100
C678        C  0.09256650  0.88373102  0.12943375     1.15000
C679        C  0.09564465  0.89753224  0.94239167     1.05800
O680        O  0.06832983  0.53345483  0.90379078    -0.93800
O681        O  0.99688705  0.54733658  0.88518922    -0.89600
O682        O  0.96659870  0.58485325  0.91622629    -0.82700
C683        C  0.97428707  0.57799105  0.88574111     1.12400
O684        O  0.98485044  0.82727993  0.97806685    -0.95800
Zr685      Zr  0.97936126  0.91496876  0.97772941     1.88900
O686        O  0.92452539  0.53082279  0.95364342    -0.72400
O687        O  0.99948531  0.94496863  0.86825949    -0.51700
O688        O  0.95239570  0.88494873  0.90668242    -0.96400
O689        O  0.94915470  0.87422312  0.01333688    -0.53600
O690        O  0.92039452  0.94893167  0.94795830    -0.73000
C691        C  0.90697229  0.99132168  0.94282471     0.99400
O692        O  0.98189426  0.63981503  0.98481090    -0.61800
O693        O  0.07078824  0.52044303  0.15046785    -0.56600
O694        O  0.96885549  0.58175957  0.03750943    -0.93300
O695        O  0.99923706  0.53967165  0.09736649    -0.91700
O696        O  0.11979393  0.58246332  0.11068610    -0.92000
O697        O  0.08846195  0.63917557  0.04234331    -0.90800
C698        C  0.97720188  0.57220675  0.07570876     1.18200
H699        H  0.10894031  0.97856209  0.10236744     0.34200
H700        H  0.03977558  0.58468084  0.96160255     0.45000
H701        H  0.96257231  0.98240666  0.02704574     0.38600
H702        H  0.03148904  0.88675945  0.95146825     0.35000
H703        H  0.14211249  0.60669706  0.02470084     0.26800
H704        H  0.01093821  0.95202313  0.84995158     0.32800
H705        H  0.92827443  0.87511844  0.90158540     0.38700
H706        H  0.14297346  0.59479203  0.11422189     0.33100
H707        H  0.06466908  0.50392951  0.17093204     0.32000
H708        H  0.00541241  0.94907968  0.13830884     0.33700
H709        H  0.92539655  0.86655881  0.99128672     0.32700
H710        H  0.06304509  0.64658105  0.02670779     0.36700
H711        H  0.99644440  0.65008180  0.01382475     0.29400
H712        H  0.11654898  0.82202025  0.03782455     0.33600
H713        H  0.96066879  0.81480288  0.96166678     0.36500
H714        H  0.09543284  0.51066108  0.15813002     0.29100
H715        H  0.99539655  0.65130007  0.96986236     0.42000
H716        H  0.09337001  0.52561868  0.92159611     0.32000
H717        H  0.12833002  0.56697265  0.99022447     0.39600
H718        H  0.94497440  0.89952716  0.03015936     0.31500
H719        H  0.00401850  0.91021048  0.87490108     0.31500
H720        H  0.07659331  0.81565870  0.00667565     0.31800
C721        C  0.30267031  0.97020762  0.14515978    -0.17700
C722        C  0.27090694  0.96990687  0.12871278     0.06300
C723        C  0.23371936  0.97038972  0.10964080     0.08200
C724        C  0.20197395  0.97189537  0.09347052    -0.18600
C725        C  0.86926724  0.99454792  0.92344017    -0.17700
C726        C  0.83752140  0.99558850  0.90695882     0.06300
C727        C  0.80034644  0.99551969  0.88759915     0.08200
C728        C  0.76859267  0.99494081  0.87129046    -0.18600
C729        C  0.11299715  0.87045785  0.92256008    -0.17700
C730        C  0.12729611  0.84742501  0.90573156     0.06300
C731        C  0.14414443  0.82022899  0.88627302     0.08200
C732        C  0.15895636  0.79689724  0.87023614    -0.18600
C733        C  0.36929771  0.74450412  0.92348386    -0.17700
C734        C  0.33754409  0.74547088  0.90702901     0.06300
C735        C  0.30035854  0.74526485  0.88772027     0.08200
C736        C  0.26859957  0.74456769  0.87148188    -0.18600
C737        C  0.65886901  0.54715073  0.86983797    -0.17700
C738        C  0.64403896  0.57023152  0.88599215     0.06300
C739        C  0.62719609  0.59712160  0.90562098     0.08200
C740        C  0.61292498  0.62002215  0.92255049    -0.18600
C741        C  0.46019258  0.84957400  0.09560077    -0.17700
C742        C  0.44596697  0.87274784  0.11244219     0.06300
C743        C  0.42894168  0.89956446  0.13192020     0.08200
C744        C  0.41377600  0.92198136  0.14805929    -0.18600
C745        C  0.70206562  0.72252108  0.09366285    -0.17700
C746        C  0.73381276  0.72099281  0.10990840     0.06300
C747        C  0.77100119  0.72034838  0.12895959     0.08200
C748        C  0.80276587  0.72047481  0.14533770    -0.18600
C749        C  0.96047508  0.60005620  0.09584331    -0.17700
C750        C  0.94627448  0.62311120  0.11277780     0.06300
C751        C  0.92918571  0.64962854  0.13234072     0.08200
C752        C  0.91392104  0.67180425  0.14848693    -0.18600
C753        C  0.40769117  0.93580915  0.75323496    -0.17700
C754        C  0.42341948  0.91118976  0.78354345     0.06300
C755        C  0.44142850  0.88229172  0.81911348     0.08200
C756        C  0.45656471  0.85758549  0.84951979    -0.18600
C757        C  0.29667566  0.99455195  0.64751673    -0.17700
C758        C  0.26491769  0.99514743  0.63131197     0.06300
C759        C  0.22773471  0.99523428  0.61192944     0.08200
C760        C  0.19598357  0.99421568  0.59535301    -0.18600
C761        C  0.15778042  0.68582003  0.76532225    -0.17700
C762        C  0.14196304  0.66126647  0.73500018     0.06300
C763        C  0.12373906  0.63249807  0.69940914     0.08200
C764        C  0.10845320  0.60788171  0.66898566    -0.18600
C765        C  0.95655110  0.85218453  0.35422202    -0.17700
C766        C  0.94288023  0.82681136  0.32401047     0.06300
C767        C  0.92652066  0.79812851  0.28803147     0.08200
C768        C  0.91200467  0.77448096  0.25687714    -0.18600
C769        C  0.86325130  0.97195659  0.42443609    -0.17700
C770        C  0.83150842  0.97049374  0.40817086     0.06300
C771        C  0.79432703  0.97003883  0.38919736     0.08200
C772        C  0.76256733  0.97033665  0.37297206    -0.18600
C773        C  0.65311753  0.52480860  0.26208284    -0.17700
C774        C  0.63860949  0.54847256  0.23093076     0.06300
C775        C  0.62235481  0.57710797  0.19489594     0.08200
C776        C  0.60878692  0.60242319  0.16462421    -0.18600
C777        C  0.15324607  0.77459847  0.26208882    -0.17700
C778        C  0.13873534  0.79832416  0.23095471     0.06300
C779        C  0.12239042  0.82710740  0.19499179     0.08200
C780        C  0.10872796  0.85251473  0.16477222    -0.18600
C781        C  0.10487904  0.59956903  0.42285987    -0.17700
C782        C  0.11913358  0.62273708  0.40606122     0.06300
C783        C  0.13623609  0.64954319  0.38668892     0.08200
C784        C  0.15145634  0.67196103  0.37062931    -0.18600
C785        C  0.36318507  0.72179264  0.42473101    -0.17700
C786        C  0.33144705  0.72025030  0.40860724     0.06300
C787        C  0.29427053  0.71973126  0.38966873     0.08200
C788        C  0.26251364  0.72004809  0.37335015    -0.18600
C789        C  0.65793713  0.93557926  0.76538068    -0.17700
C790        C  0.64225750  0.91073191  0.73522612     0.06300
C791        C  0.62418938  0.88176760  0.69974068     0.08200
C792        C  0.60892992  0.85718943  0.66929708    -0.18600
C793        C  0.45649278  0.60214564  0.35413400    -0.17700
C794        C  0.44284596  0.57658151  0.32401067     0.06300
C795        C  0.42647284  0.54767072  0.28812350     0.08200
C796        C  0.41193681  0.52395049  0.25698465    -0.18600
C797        C  0.40604174  0.54730531  0.64832153    -0.17700
C798        C  0.42072228  0.57073450  0.63219278     0.06300
C799        C  0.43746317  0.59798990  0.61265935     0.08200
C800        C  0.45174691  0.62100613  0.59581591    -0.18600
C801        C  0.65162874  0.92145993  0.37034723    -0.17700
C802        C  0.63633825  0.89918253  0.38641416     0.06300
C803        C  0.61913479  0.87267544  0.40586171     0.08200
C804        C  0.60483215  0.84971663  0.42274144    -0.18600
C805        C  0.79668942  0.74491933  0.64743978    -0.17700
C806        C  0.76492406  0.74552693  0.63116462     0.06300
C807        C  0.72772821  0.74559416  0.61177021     0.08200
C808        C  0.69596865  0.74455888  0.59523733    -0.18600
C809        C  0.95621330  0.60704747  0.84935455    -0.17700
C810        C  0.94100390  0.63157296  0.81886420     0.06300
C811        C  0.92301966  0.66045193  0.78329907     0.08200
C812        C  0.90738807  0.68524512  0.75309251    -0.18600
C813        C  0.90640653  0.79706829  0.64875622    -0.17700
C814        C  0.92123357  0.82029164  0.63267973     0.06300
C815        C  0.93807537  0.84735339  0.61314631     0.08200
C816        C  0.95234457  0.87033031  0.59625779    -0.18600
loop_ 
_geom_bond_atom_site_label_1 
_geom_bond_atom_site_label_2 
_geom_bond_distance 
_geom_bond_site_symmetry_2 
_ccdc_geom_bond_type 
C1            N2   1.356       .  A
C1            N6   1.358       .  A
C1          C405   1.435       .  S
N2            C3   1.356       .  A
C3            N4   1.357       .  A
C3          C397   1.434       .  S
N4            C5   1.357       .  A
C5            N6   1.358       .  A
C5          C404   1.436       .  S
Zr7           O8   2.439       .  S
Zr7           O9   2.427       .  S
Zr7          O10   2.435       .  S
Zr7          O13   2.431       .  S
Zr7          O15   2.381       .  S
Zr7          O16   2.381       .  S
Zr7          O17   2.402       .  S
Zr7          O18   2.400       .  S
O8           H64   0.990       .  S
O8           H72   0.990       .  S
O9           C29   1.282       .  A
O10          C31   1.283       .  A
O11         Zr21   2.432       .  S
O11          C30   1.283       .  A
O12         Zr20   2.429       .  S
O12          C31   1.282       .  A
O13          C30   1.284       .  A
O14         Zr22   2.428       .  S
O14          C29   1.281       .  A
O15         Zr20   2.390       .  S
O15         Zr22   2.375       .  S
O16         Zr21   2.389       .  S
O16         Zr22   2.373       .  S
O16          H51   0.966       .  S
O17         Zr20   2.397       .  S
O17         Zr37   2.395       .  S
O17          H54   0.966       .  S
O18         Zr21   2.391       .  S
O18         Zr37   2.396       .  S
Zr19         O44   2.442       .  S
Zr19         O38   2.430       .  S
Zr19         O46   2.434       .  S
Zr19         O34   2.432       .  S
Zr19         O25   2.400       .  S
Zr19         O26   2.404       .  S
Zr19         O27   2.378       .  S
Zr19         O28   2.380       .  S
Zr20         O39   2.437       .  S
Zr20         O32   2.435       .  S
Zr20         O33   2.431       .  S
Zr20         O26   2.395       .  S
Zr20         O27   2.386       .  S
Zr21         O23   2.435       .  S
Zr21         O45   2.437       .  S
Zr21         O47   2.431       .  S
Zr21         O25   2.392       .  S
Zr21         O28   2.385       .  S
Zr22         O48   2.435       .  S
Zr22         O49   2.435       .  S
Zr22         O24   2.437       .  S
Zr22         O25   2.397       .  S
Zr22         O26   2.397       .  S
O23          H60   0.990       .  S
O24          H55   0.990       .  S
O24          H69   0.990       .  S
O26          H52   0.966       .  S
O27         Zr37   2.373       .  S
O28         Zr37   2.377       .  S
O28          H53   0.966       .  S
C29         C377   1.433       .  S
C30         C385   1.436       .  S
C31         C392   1.435       .  S
O32          H68   0.990       .  S
O33          C35   1.283       .  A
O34          C35   1.283       .  A
C35         C384   1.435       .  S
O36         Zr37   2.439       .  S
O36          H65   0.990       .  S
Zr37         O40   2.437       .  S
Zr37         O41   2.440       .  S
Zr37         O42   2.427       .  S
O38          C43   1.283       .  A
O39          H56   0.990       .  S
O39          H71   0.990       .  S
O40          H57   0.990       .  S
O41          H61   0.990       .  S
O41          H70   0.990       .  S
O42          C43   1.281       .  A
C43         C400   1.434       .  S
O44          H63   0.990       .  S
O44          H67   0.990       .  S
O45          H59   0.990       .  S
O45          H66   0.990       .  S
O46          C50   1.284       .  A
O47          C50   1.283       .  A
O48          H58   0.990       .  S
O49          H62   0.990       .  S
C50         C396   1.436       .  S
C73          N74   1.357       .  A
C73          N78   1.358       .  A
C73         C376   1.435       .  S
N74          C75   1.356       .  A
C75          N76   1.356       .  A
C75         C380   1.434       .  S
N76          C77   1.357       .  A
C77          N78   1.358       .  A
C77         C369   1.436       .  S
C79          N80   1.357       .  A
C79          N84   1.358       .  A
C79         C393   1.436       .  S
N80          C81   1.357       .  A
C81          N82   1.356       .  A
C81         C364   1.434       .  S
N82          C83   1.357       .  A
C83          N84   1.358       .  A
C83         C773   1.435       .  S
Zr85         O86   2.439       .  S
Zr85         O87   2.427       .  S
Zr85         O88   2.435       .  S
Zr85         O91   2.431       .  S
Zr85         O93   2.381       .  S
Zr85         O94   2.381       .  S
Zr85         O95   2.402   1_655  S
Zr85         O96   2.401   1_655  S
O86         H142   0.990       .  S
O86         H150   0.990       .  S
O87         C107   1.282       .  A
O88         C109   1.283       .  A
O89         Zr99   2.429   1_655  S
O89         C108   1.283       .  A
O90         Zr98   2.429   1_655  S
O90         C109   1.282       .  A
O91         C108   1.284       .  A
O92        Zr100   2.427       .  S
O92         C515   1.281   1_545  A
O93         Zr98   2.391   1_655  S
O93        Zr508   2.376       .  S
O94         Zr99   2.388   1_655  S
O94        Zr508   2.373       .  S
O94         H129   0.966       .  S
O95         Zr98   2.398       .  S
O95        Zr115   2.395       .  S
O95         H132   0.966       .  S
O96         Zr99   2.392       .  S
O96        Zr115   2.396       .  S
Zr97        O122   2.443       .  S
Zr97        O116   2.429       .  S
Zr97        O124   2.432       .  S
Zr97        O112   2.433       .  S
Zr97        O103   2.400       .  S
Zr97        O104   2.403       .  S
Zr97        O513   2.379   1_545  S
Zr97        O514   2.381   1_545  S
Zr98        O117   2.437       .  S
Zr98        O518   2.435   1_455  S
Zr98        O519   2.432       .  S
Zr98        O105   2.387       .  S
Zr98        O512   2.395       .  S
Zr99        O101   2.435       .  S
Zr99        O531   2.437   1_455  S
Zr99        O533   2.431       .  S
Zr99        O106   2.385       .  S
Zr99        O511   2.392       .  S
Zr100       O126   2.435       .  S
Zr100       O127   2.435       .  S
Zr100       O102   2.436       .  S
Zr100       O103   2.396   1_655  S
Zr100       O104   2.396   1_655  S
Zr100       O501   2.376   1_545  S
Zr100       O502   2.373   1_545  S
O101        H138   0.990       .  S
O102        H133   0.990       .  S
O102        H147   0.990       .  S
O103       Zr507   2.392   1_545  S
O104       Zr506   2.395   1_545  S
O104        H130   0.966       .  S
O105       Zr115   2.374       .  S
O105       Zr505   2.379       .  S
O106       Zr115   2.376       .  S
O106       Zr505   2.381       .  S
O106        H131   0.966       .  S
C107        C361   1.433       .  S
C107        O500   1.281       .  A
C108        C357   1.434       .  S
C109        C408   1.435       .  S
O110       Zr506   2.435   1_645  S
O110        H146   0.990       .  S
O111       Zr506   2.432   1_545  S
O111        C113   1.283       .  A
O112        C113   1.283       .  A
C113        C356   1.436       .  S
O114       Zr115   2.439       .  S
O114        H143   0.990       .  S
Zr115       O118   2.437       .  S
Zr115       O119   2.440       .  S
Zr115       O120   2.427       .  S
O116        C529   1.282   1_545  A
O117        H134   0.990       .  S
O117        H149   0.990       .  S
O118        H135   0.990       .  S
O119        H139   0.990       .  S
O119        H148   0.990       .  S
O120        C121   1.281       .  A
C121        C352   1.433       .  S
C121        O524   1.282       .  A
O122        H141   0.990       .  S
O122        H145   0.990       .  S
O123       Zr507   2.437   1_645  S
O123        H137   0.990   1_655  S
O123        H144   0.990       .  S
O124        C128   1.283       .  A
O125       Zr507   2.431   1_545  S
O125        C128   1.283       .  A
O126        H136   0.990       .  S
O127        H140   0.990   1_655  S
C128        C373   1.435       .  S
C151        N152   1.356       .  A
C151        N564   1.358   1_545  A
C151        C389   1.435       .  S
N152        C153   1.356   1_545  A
C153        N562   1.357       .  A
C153        C757   1.434       .  S
N154        C155   1.357       .  A
N154        C561   1.357       .  A
C155        N156   1.358       .  A
C155        C345   1.436       .  S
N156        C559   1.358       .  A
C157        N158   1.358       .  A
C157        N162   1.357       .  A
C157        C344   1.436       .  S
N158        C159   1.358       .  A
C159        N160   1.357       .  A
C159        C360   1.435       .  S
N160        C161   1.356       .  A
C161        N162   1.356       .  A
C161        C340   1.434       .  S
Zr163       O164   2.439       .  S
Zr163       O165   2.429       .  S
Zr163       O166   2.435   1_554  S
Zr163       O169   2.432       .  S
Zr163       O171   2.381   1_554  S
Zr163       O172   2.380       .  S
Zr163       O173   2.403   1_554  S
Zr163       O174   2.401       .  S
O164        H220   0.990       .  S
O164        H228   0.990       .  S
O165        C185   1.282       .  A
O166        C187   1.283       .  A
O167       Zr177   2.429       .  S
O167        C186   1.283       .  A
O168       Zr176   2.430       .  S
O168        C187   1.282       .  A
O169        C186   1.284       .  A
O170       Zr178   2.427       .  S
O170        C185   1.281       .  A
O171       Zr176   2.392       .  S
O171       Zr178   2.376   1_556  S
O172       Zr177   2.388       .  S
O172       Zr178   2.373       .  S
O172        H207   0.966       .  S
O173       Zr176   2.398       .  S
O173       Zr193   2.396       .  S
O173        H210   0.966       .  S
O174       Zr177   2.392       .  S
O174       Zr193   2.397   1_554  S
Zr175       O200   2.442       .  S
Zr175       O194   2.428       .  S
Zr175       O202   2.432   1_556  S
Zr175       O190   2.432       .  S
Zr175       O181   2.399   1_556  S
Zr175       O182   2.402       .  S
Zr175       O183   2.379       .  S
Zr175       O184   2.381   1_556  S
Zr176       O195   2.437       .  S
Zr176       O188   2.435       .  S
Zr176       O189   2.433       .  S
Zr176       O182   2.394       .  S
Zr176       O183   2.386       .  S
Zr177       O179   2.435       .  S
Zr177       O201   2.437       .  S
Zr177       O203   2.432       .  S
Zr177       O181   2.392       .  S
Zr177       O184   2.384       .  S
Zr178       O204   2.435       .  S
Zr178       O205   2.435       .  S
Zr178       O180   2.436       .  S
Zr178       O181   2.396       .  S
Zr178       O182   2.396   1_554  S
O179        H216   0.990       .  S
O180        H211   0.990       .  S
O180        H225   0.990   1_554  S
O182        H208   0.966       .  S
O183       Zr193   2.373       .  S
O184       Zr193   2.376   1_554  S
O184        H209   0.966       .  S
C185        C337   1.434       .  S
C186        C368   1.435       .  S
C187        C332   1.435       .  S
O188        H224   0.990       .  S
O189        C191   1.284       .  A
O190        C191   1.283       .  A
C191        C348   1.436       .  S
O192       Zr193   2.439       .  S
O192        H221   0.990       .  S
Zr193       O196   2.437       .  S
Zr193       O197   2.440   1_556  S
Zr193       O198   2.428       .  S
O194        C199   1.282       .  A
O195        H212   0.990       .  S
O195        H227   0.990       .  S
O196        H213   0.990       .  S
O197        H217   0.990   1_554  S
O197        H226   0.990       .  S
O198        C199   1.282       .  A
C199        C325   1.433       .  S
O200        H219   0.990   1_556  S
O200        H223   0.990       .  S
O201        H215   0.990       .  S
O201        H222   0.990       .  S
O202        C206   1.283       .  A
O203        C206   1.284       .  A
O204        H214   0.990       .  S
O205        H218   0.990       .  S
C206        C333   1.436       .  S
C229        N230   1.356       .  A
C229        N234   1.358       .  A
C229        C324   1.435       .  S
N230        C231   1.356       .  A
C231        N232   1.357       .  A
C231        C328   1.434       .  S
N232        C233   1.357       .  A
C233        N234   1.358       .  A
C233        C353   1.436       .  S
C235        N236   1.356       .  A
C235        N240   1.358   1_545  A
C235        C329   1.435       .  S
N236        C237   1.356   1_545  A
C237        N646   1.357       .  A
C237        C728   1.434       .  S
N238        C239   1.357       .  A
N238        C645   1.357       .  A
C239        N648   1.358       .  A
C239        C381   1.436       .  S
N240        C647   1.358       .  A
C241        N242   1.358       .  A
C241        N246   1.357       .  A
C241        C336   1.436       .  S
N242        C243   1.358       .  A
C243        N244   1.357       .  A
C243        C796   1.436       .  S
N244        C245   1.357       .  A
C245        N246   1.356       .  A
C245        C313   1.434       .  S
Zr247       O248   2.439       .  S
Zr247       O249   2.427       .  S
Zr247       O250   2.437   1_554  S
Zr247       O253   2.433       .  S
Zr247       O255   2.381   1_554  S
Zr247       O256   2.381       .  S
Zr247       O257   2.402   1_554  S
Zr247       O258   2.401       .  S
O248        H304   0.990       .  S
O248        H312   0.990       .  S
O249        C269   1.282       .  A
O250        C271   1.283       .  A
O251       Zr261   2.430       .  S
O251        C270   1.283       .  A
O252       Zr260   2.428       .  S
O252        C271   1.282       .  A
O253        C270   1.284       .  A
O254       Zr262   2.428       .  S
O254        C677   1.281   1_545  A
O255       Zr260   2.391       .  S
O255       Zr670   2.376   1_556  S
O256       Zr261   2.389       .  S
O256       Zr670   2.373       .  S
O256        H291   0.966       .  S
O257       Zr260   2.398       .  S
O257       Zr277   2.395   1_455  S
O257        H294   0.966       .  S
O258       Zr261   2.392       .  S
O258       Zr277   2.396   1_454  S
Zr259       O284   2.442       .  S
Zr259       O278   2.428       .  S
Zr259       O286   2.433   1_556  S
Zr259       O274   2.431       .  S
Zr259       O265   2.399   1_656  S
Zr259       O266   2.403   1_655  S
Zr259       O675   2.378   1_545  S
Zr259       O676   2.380   1_546  S
Zr260       O279   2.437   1_455  S
Zr260       O680   2.435       .  S
Zr260       O681   2.431   1_455  S
Zr260       O267   2.385   1_455  S
Zr260       O674   2.395       .  S
Zr261       O263   2.435   1_455  S
Zr261       O693   2.437       .  S
Zr261       O695   2.431   1_455  S
Zr261       O268   2.385   1_455  S
Zr261       O673   2.392       .  S
Zr262       O288   2.435       .  S
Zr262       O289   2.435       .  S
Zr262       O264   2.437       .  S
Zr262       O265   2.396       .  S
Zr262       O266   2.397   1_554  S
Zr262       O663   2.376   1_544  S
Zr262       O664   2.373   1_545  S
O263        H300   0.990   1_655  S
O264        H295   0.990       .  S
O264        H309   0.990   1_554  S
O265       Zr669   2.392   1_545  S
O266       Zr668   2.395   1_545  S
O266        H292   0.966       .  S
O267       Zr277   2.373       .  S
O267       Zr667   2.378       .  S
O268       Zr277   2.377   1_554  S
O268       Zr667   2.380   1_554  S
O268        H293   0.966       .  S
C269        C316   1.434       .  S
C269        O662   1.281       .  A
C270        C372   1.436       .  S
C271        C321   1.435       .  S
O272       Zr668   2.435   1_545  S
O272        H308   0.990       .  S
O273       Zr668   2.431   1_645  S
O273        C275   1.283       .  A
O274        C275   1.283       .  A
C275        C401   1.435       .  S
O276       Zr277   2.439       .  S
O276        H305   0.990       .  S
Zr277       O280   2.436       .  S
Zr277       O281   2.440   1_556  S
Zr277       O282   2.426       .  S
O278        C691   1.282   1_545  A
O279        H296   0.990   1_655  S
O279        H311   0.990   1_655  S
O280        H297   0.990       .  S
O281        H301   0.990   1_554  S
O281        H310   0.990       .  S
O282        C283   1.281       .  A
C283        C317   1.433       .  S
C283        O686   1.282       .  A
O284        H303   0.990   1_556  S
O284        H307   0.990       .  S
O285       Zr669   2.437   1_545  S
O285        H299   0.990       .  S
O285        H306   0.990       .  S
O286        C290   1.284       .  A
O287       Zr669   2.431   1_645  S
O287        C290   1.283       .  A
O288        H298   0.990       .  S
O289        H302   0.990       .  S
C290        C341   1.435       .  S
C313        C314   1.205       .  T
C314        C315   1.411       .  S
C315        C316   1.205       .  T
C317        C318   1.204       .  T
C318        C319   1.410       .  S
C319        C320   1.204       .  T
C320        C645   1.434       .  S
C321        C322   1.206       .  T
C322        C323   1.412       .  S
C323        C324   1.206       .  T
C325        C326   1.205       .  T
C326        C327   1.410       .  S
C327        C328   1.205       .  T
C329        C330   1.205       .  T
C330        C331   1.412       .  S
C331        C332   1.206       .  T
C333        C334   1.206       .  T
C334        C335   1.412       .  S
C335        C336   1.206       .  T
C337        C338   1.205       .  T
C338        C339   1.411       .  S
C339        C340   1.205       .  T
C341        C342   1.206       .  T
C342        C343   1.412       .  S
C343        C344   1.206       .  T
C345        C346   1.206       .  T
C346        C347   1.413       .  S
C347        C348   1.206       .  T
C349        C561   1.434       .  S
C349        C350   1.205       .  T
C350        C351   1.410       .  S
C351        C352   1.205       .  T
C353        C354   1.206       .  T
C354        C355   1.412       .  S
C355        C356   1.206       .  T
C357        C358   1.205       .  T
C358        C359   1.411       .  S
C359        C360   1.205       .  T
C361        C362   1.205       .  T
C362        C363   1.410       .  S
C363        C364   1.205       .  T
C365        C491   1.435   1_545  S
C365        C366   1.205       .  T
C366        C367   1.412       .  S
C367        C368   1.205       .  T
C369        C370   1.206       .  T
C370        C371   1.412       .  S
C371        C372   1.206       .  T
C373        C374   1.206       .  T
C374        C375   1.412       .  S
C375        C376   1.206       .  T
C377        C378   1.205       .  T
C378        C379   1.410       .  S
C379        C380   1.205       .  T
C381        C382   1.206       .  T
C382        C383   1.412       .  S
C383        C384   1.206       .  T
C385        C386   1.206       .  T
C386        C387   1.413       .  S
C387        C388   1.206       .  T
C388        C651   1.436   1_545  S
C389        C390   1.205       .  T
C390        C391   1.412       .  S
C391        C392   1.205       .  T
C393        C394   1.206       .  T
C394        C395   1.413       .  S
C395        C396   1.206       .  T
C397        C398   1.205       .  T
C398        C399   1.411       .  S
C399        C400   1.205       .  T
C401        C402   1.206       .  T
C402        C403   1.412       .  S
C403        C404   1.206       .  T
C405        C406   1.205       .  T
C406        C407   1.412       .  S
C407        C408   1.206       .  T
C409        N410   1.356       .  A
C409        N414   1.358       .  A
C409        C813   1.435       .  S
N410        C411   1.356       .  A
C411        N412   1.357       .  A
C411        C805   1.434       .  S
N412        C413   1.357       .  A
C413        N414   1.358       .  A
C413        C812   1.436       .  S
Zr415       O416   2.439       .  S
Zr415       O417   2.427       .  S
Zr415       O418   2.435       .  S
Zr415       O421   2.431       .  S
Zr415       O423   2.381       .  S
Zr415       O424   2.381       .  S
Zr415       O425   2.402       .  S
Zr415       O426   2.400       .  S
O416        H472   0.990       .  S
O416        H480   0.990       .  S
O417        C437   1.282       .  A
O418        C439   1.283       .  A
O419       Zr429   2.432       .  S
O419        C438   1.283       .  A
O420       Zr428   2.429       .  S
O420        C439   1.282       .  A
O421        C438   1.284       .  A
O422       Zr430   2.428       .  S
O422        C437   1.281       .  A
O423       Zr428   2.390       .  S
O423       Zr430   2.375       .  S
O424       Zr429   2.388       .  S
O424       Zr430   2.373       .  S
O424        H459   0.966       .  S
O425       Zr428   2.397       .  S
O425       Zr445   2.395       .  S
O425        H462   0.966       .  S
O426       Zr429   2.391       .  S
O426       Zr445   2.396       .  S
Zr427       O452   2.442       .  S
Zr427       O446   2.430       .  S
Zr427       O454   2.434       .  S
Zr427       O442   2.432       .  S
Zr427       O433   2.400       .  S
Zr427       O434   2.404       .  S
Zr427       O435   2.378       .  S
Zr427       O436   2.380       .  S
Zr428       O447   2.437       .  S
Zr428       O440   2.435       .  S
Zr428       O441   2.431       .  S
Zr428       O434   2.395       .  S
Zr428       O435   2.386       .  S
Zr429       O431   2.435       .  S
Zr429       O453   2.437       .  S
Zr429       O455   2.431       .  S
Zr429       O433   2.392       .  S
Zr429       O436   2.385       .  S
Zr430       O456   2.435       .  S
Zr430       O457   2.435       .  S
Zr430       O432   2.437       .  S
Zr430       O433   2.397       .  S
Zr430       O434   2.397       .  S
O431        H468   0.990       .  S
O432        H463   0.990       .  S
O432        H477   0.990       .  S
O434        H460   0.966       .  S
O435       Zr445   2.373       .  S
O436       Zr445   2.377       .  S
O436        H461   0.966       .  S
C437        C785   1.433       .  S
C438        C793   1.436       .  S
C439        C800   1.435       .  S
O440        H476   0.990       .  S
O441        C443   1.283       .  A
O442        C443   1.283       .  A
C443        C792   1.435       .  S
O444       Zr445   2.439       .  S
O444        H473   0.990       .  S
Zr445       O448   2.437       .  S
Zr445       O449   2.440       .  S
Zr445       O450   2.427       .  S
O446        C451   1.283       .  A
O447        H464   0.990       .  S
O447        H479   0.990       .  S
O448        H465   0.990       .  S
O449        H469   0.990       .  S
O449        H478   0.990       .  S
O450        C451   1.281       .  A
C451        C808   1.434       .  S
O452        H471   0.990       .  S
O452        H475   0.990       .  S
O453        H467   0.990       .  S
O453        H474   0.990       .  S
O454        C458   1.284       .  A
O455        C458   1.283       .  A
O456        H466   0.990       .  S
O457        H470   0.990       .  S
C458        C804   1.436       .  S
C481        N482   1.357       .  A
C481        N486   1.358       .  A
C481        C784   1.435       .  S
N482        C483   1.356       .  A
C483        N484   1.356       .  A
C483        C788   1.434       .  S
N484        C485   1.357       .  A
C485        N486   1.358       .  A
C485        C777   1.436       .  S
C487        N488   1.357       .  A
C487        N492   1.358       .  A
C487        C801   1.436       .  S
N488        C489   1.357       .  A
C489        N490   1.356       .  A
C489        C772   1.434       .  S
N490        C491   1.357       .  A
C491        N492   1.358       .  A
Zr493       O494   2.439       .  S
Zr493       O495   2.427       .  S
Zr493       O496   2.435       .  S
Zr493       O499   2.431       .  S
Zr493       O501   2.381       .  S
Zr493       O502   2.381       .  S
Zr493       O503   2.402   1_655  S
Zr493       O504   2.401   1_655  S
O494        H550   0.990       .  S
O494        H558   0.990       .  S
O495        C515   1.282       .  A
O496        C517   1.283       .  A
O497       Zr507   2.429   1_655  S
O497        C516   1.283       .  A
O498       Zr506   2.429   1_655  S
O498        C517   1.282       .  A
O499        C516   1.284       .  A
O500       Zr508   2.427       .  S
O501       Zr506   2.391   1_655  S
O502       Zr507   2.388   1_655  S
O502        H537   0.966       .  S
O503       Zr506   2.398       .  S
O503       Zr523   2.395       .  S
O503        H540   0.966       .  S
O504       Zr507   2.392       .  S
O504       Zr523   2.396       .  S
Zr505       O530   2.443       .  S
Zr505       O524   2.429       .  S
Zr505       O532   2.432       .  S
Zr505       O520   2.433       .  S
Zr505       O511   2.400       .  S
Zr505       O512   2.403       .  S
Zr506       O525   2.437       .  S
Zr506       O513   2.387       .  S
Zr507       O509   2.435       .  S
Zr507       O514   2.385       .  S
Zr508       O534   2.435       .  S
Zr508       O535   2.435       .  S
Zr508       O510   2.436       .  S
Zr508       O511   2.396   1_655  S
Zr508       O512   2.396   1_655  S
O509        H546   0.990       .  S
O510        H541   0.990       .  S
O510        H555   0.990       .  S
O512        H538   0.966       .  S
O513       Zr523   2.374       .  S
O514       Zr523   2.376       .  S
O514        H539   0.966       .  S
C515        C769   1.433       .  S
C516        C765   1.434       .  S
C517        C816   1.435       .  S
O518        H554   0.990       .  S
O519        C521   1.283       .  A
O520        C521   1.283       .  A
C521        C764   1.436       .  S
O522       Zr523   2.439       .  S
O522        H551   0.990       .  S
Zr523       O526   2.437       .  S
Zr523       O527   2.440       .  S
Zr523       O528   2.427       .  S
O525        H542   0.990       .  S
O525        H557   0.990       .  S
O526        H543   0.990       .  S
O527        H547   0.990       .  S
O527        H556   0.990       .  S
O528        C529   1.281       .  A
C529        C760   1.433       .  S
O530        H549   0.990       .  S
O530        H553   0.990       .  S
O531        H545   0.990   1_655  S
O531        H552   0.990       .  S
O532        C536   1.283       .  A
O533        C536   1.283       .  A
O534        H544   0.990       .  S
O535        H548   0.990   1_655  S
C536        C781   1.435       .  S
C559        N560   1.356       .  A
C559        C797   1.435       .  S
N560        C561   1.356       .  A
N562        C563   1.357       .  A
C563        N564   1.358       .  A
C563        C753   1.436       .  S
C565        N566   1.358       .  A
C565        N570   1.357       .  A
C565        C752   1.436       .  S
N566        C567   1.358       .  A
C567        N568   1.357       .  A
C567        C768   1.435       .  S
N568        C569   1.356       .  A
C569        N570   1.356       .  A
C569        C748   1.434       .  S
Zr571       O572   2.439       .  S
Zr571       O573   2.429       .  S
Zr571       O574   2.435   1_554  S
Zr571       O577   2.432       .  S
Zr571       O579   2.381   1_554  S
Zr571       O580   2.380       .  S
Zr571       O581   2.403   1_554  S
Zr571       O582   2.401       .  S
O572        H628   0.990       .  S
O572        H636   0.990       .  S
O573        C593   1.282       .  A
O574        C595   1.283       .  A
O575       Zr585   2.429       .  S
O575        C594   1.283       .  A
O576       Zr584   2.430       .  S
O576        C595   1.282       .  A
O577        C594   1.284       .  A
O578       Zr586   2.427       .  S
O578        C593   1.281       .  A
O579       Zr584   2.392       .  S
O579       Zr586   2.376   1_556  S
O580       Zr585   2.388       .  S
O580       Zr586   2.373       .  S
O580        H615   0.966       .  S
O581       Zr584   2.398       .  S
O581       Zr601   2.396       .  S
O581        H618   0.966       .  S
O582       Zr585   2.392       .  S
O582       Zr601   2.397   1_554  S
Zr583       O608   2.442       .  S
Zr583       O602   2.428       .  S
Zr583       O610   2.432   1_556  S
Zr583       O598   2.432       .  S
Zr583       O589   2.399   1_556  S
Zr583       O590   2.402       .  S
Zr583       O591   2.379       .  S
Zr583       O592   2.381   1_556  S
Zr584       O603   2.437       .  S
Zr584       O596   2.435       .  S
Zr584       O597   2.433       .  S
Zr584       O590   2.394       .  S
Zr584       O591   2.386       .  S
Zr585       O587   2.435       .  S
Zr585       O609   2.437       .  S
Zr585       O611   2.432       .  S
Zr585       O589   2.392       .  S
Zr585       O592   2.384       .  S
Zr586       O612   2.435       .  S
Zr586       O613   2.435       .  S
Zr586       O588   2.436       .  S
Zr586       O589   2.396       .  S
Zr586       O590   2.396   1_554  S
O587        H624   0.990       .  S
O588        H619   0.990       .  S
O588        H633   0.990   1_554  S
O590        H616   0.966       .  S
O591       Zr601   2.373       .  S
O592       Zr601   2.376   1_554  S
O592        H617   0.966       .  S
C593        C745   1.434       .  S
C594        C776   1.435       .  S
C595        C740   1.435       .  S
O596        H632   0.990       .  S
O597        C599   1.284       .  A
O598        C599   1.283       .  A
C599        C756   1.436       .  S
O600       Zr601   2.439       .  S
O600        H629   0.990       .  S
Zr601       O604   2.437       .  S
Zr601       O605   2.440   1_556  S
Zr601       O606   2.428       .  S
O602        C607   1.282       .  A
O603        H620   0.990       .  S
O603        H635   0.990       .  S
O604        H621   0.990       .  S
O605        H625   0.990   1_554  S
O605        H634   0.990       .  S
O606        C607   1.282       .  A
C607        C733   1.433       .  S
O608        H627   0.990   1_556  S
O608        H631   0.990       .  S
O609        H623   0.990       .  S
O609        H630   0.990       .  S
O610        C614   1.283       .  A
O611        C614   1.284       .  A
O612        H622   0.990       .  S
O613        H626   0.990       .  S
C614        C741   1.436       .  S
C637        N638   1.356       .  A
C637        N642   1.358       .  A
C637        C732   1.435       .  S
N638        C639   1.356       .  A
C639        N640   1.357       .  A
C639        C736   1.434       .  S
N640        C641   1.357       .  A
C641        N642   1.358       .  A
C641        C761   1.436       .  S
C643        N644   1.356       .  A
C643        N648   1.358       .  A
C643        C737   1.435       .  S
N644        C645   1.356       .  A
N646        C647   1.357       .  A
C647        C789   1.436       .  S
C649        N650   1.358       .  A
C649        N654   1.357       .  A
C649        C744   1.436       .  S
N650        C651   1.358       .  A
C651        N652   1.357       .  A
N652        C653   1.357       .  A
C653        N654   1.356       .  A
C653        C721   1.434       .  S
Zr655       O656   2.439       .  S
Zr655       O657   2.427       .  S
Zr655       O658   2.437   1_554  S
Zr655       O661   2.433       .  S
Zr655       O663   2.381   1_554  S
Zr655       O664   2.381       .  S
Zr655       O665   2.402   1_554  S
Zr655       O666   2.401       .  S
O656        H712   0.990       .  S
O656        H720   0.990       .  S
O657        C677   1.282       .  A
O658        C679   1.283       .  A
O659       Zr669   2.430       .  S
O659        C678   1.283       .  A
O660       Zr668   2.428       .  S
O660        C679   1.282       .  A
O661        C678   1.284       .  A
O662       Zr670   2.428       .  S
O663       Zr668   2.391       .  S
O664       Zr669   2.389       .  S
O664        H699   0.966       .  S
O665       Zr668   2.398       .  S
O665       Zr685   2.395   1_455  S
O665        H702   0.966       .  S
O666       Zr669   2.392       .  S
O666       Zr685   2.396   1_454  S
Zr667       O692   2.442       .  S
Zr667       O686   2.428       .  S
Zr667       O694   2.433   1_556  S
Zr667       O682   2.431       .  S
Zr667       O673   2.399   1_656  S
Zr667       O674   2.403   1_655  S
Zr668       O687   2.437   1_455  S
Zr668       O675   2.385   1_455  S
Zr669       O671   2.435   1_455  S
Zr669       O676   2.385   1_455  S
Zr670       O696   2.435       .  S
Zr670       O697   2.435       .  S
Zr670       O672   2.437       .  S
Zr670       O673   2.396       .  S
Zr670       O674   2.397   1_554  S
O671        H708   0.990   1_655  S
O672        H703   0.990       .  S
O672        H717   0.990   1_554  S
O674        H700   0.966       .  S
O675       Zr685   2.373       .  S
O676       Zr685   2.377   1_554  S
O676        H701   0.966       .  S
C677        C724   1.434       .  S
C678        C780   1.436       .  S
C679        C729   1.435       .  S
O680        H716   0.990       .  S
O681        C683   1.283       .  A
O682        C683   1.283       .  A
C683        C809   1.435       .  S
O684       Zr685   2.439       .  S
O684        H713   0.990       .  S
Zr685       O688   2.436       .  S
Zr685       O689   2.440   1_556  S
Zr685       O690   2.426       .  S
O687        H704   0.990   1_655  S
O687        H719   0.990   1_655  S
O688        H705   0.990       .  S
O689        H709   0.990   1_554  S
O689        H718   0.990       .  S
O690        C691   1.281       .  A
C691        C725   1.433       .  S
O692        H711   0.990   1_556  S
O692        H715   0.990       .  S
O693        H707   0.990       .  S
O693        H714   0.990       .  S
O694        C698   1.284       .  A
O695        C698   1.283       .  A
O696        H706   0.990       .  S
O697        H710   0.990       .  S
C698        C749   1.435       .  S
C721        C722   1.205       .  T
C722        C723   1.411       .  S
C723        C724   1.205       .  T
C725        C726   1.204       .  T
C726        C727   1.410       .  S
C727        C728   1.204       .  T
C729        C730   1.206       .  T
C730        C731   1.412       .  S
C731        C732   1.206       .  T
C733        C734   1.205       .  T
C734        C735   1.410       .  S
C735        C736   1.205       .  T
C737        C738   1.205       .  T
C738        C739   1.412       .  S
C739        C740   1.206       .  T
C741        C742   1.206       .  T
C742        C743   1.412       .  S
C743        C744   1.206       .  T
C745        C746   1.205       .  T
C746        C747   1.411       .  S
C747        C748   1.205       .  T
C749        C750   1.206       .  T
C750        C751   1.412       .  S
C751        C752   1.206       .  T
C753        C754   1.206       .  T
C754        C755   1.413       .  S
C755        C756   1.206       .  T
C757        C758   1.205       .  T
C758        C759   1.410       .  S
C759        C760   1.205       .  T
C761        C762   1.206       .  T
C762        C763   1.412       .  S
C763        C764   1.206       .  T
C765        C766   1.205       .  T
C766        C767   1.411       .  S
C767        C768   1.205       .  T
C769        C770   1.205       .  T
C770        C771   1.410       .  S
C771        C772   1.205       .  T
C773        C774   1.205       .  T
C774        C775   1.412       .  S
C775        C776   1.205       .  T
C777        C778   1.206       .  T
C778        C779   1.412       .  S
C779        C780   1.206       .  T
C781        C782   1.206       .  T
C782        C783   1.412       .  S
C783        C784   1.206       .  T
C785        C786   1.205       .  T
C786        C787   1.410       .  S
C787        C788   1.205       .  T
C789        C790   1.206       .  T
C790        C791   1.412       .  S
C791        C792   1.206       .  T
C793        C794   1.206       .  T
C794        C795   1.413       .  S
C795        C796   1.206       .  T
C797        C798   1.205       .  T
C798        C799   1.412       .  S
C799        C800   1.205       .  T
C801        C802   1.206       .  T
C802        C803   1.413       .  S
C803        C804   1.206       .  T
C805        C806   1.205       .  T
C806        C807   1.411       .  S
C807        C808   1.205       .  T
C809        C810   1.206       .  T
C810        C811   1.412       .  S
C811        C812   1.206       .  T
C813        C814   1.205       .  T
C814        C815   1.412       .  S
C815        C816   1.206       .  T
