geometry optimzed in LAMMPS
_audit_creation_date              2020-11-30 
_audit_creation_method            'lammps2cif' 
_symmetry_space_group_name_H-M    'P1' 
_symmetry_Int_Tables_number       1 
_symmetry_cell_setting            triclinic 
loop_ 
_symmetry_equiv_pos_as_xyz 
  x,y,z 
_cell_length_a                    61.61139042 
_cell_length_b                    61.83493398258736 
_cell_length_c                    61.701904011998785 
_cell_angle_alpha                 89.93861737029737 
_cell_angle_beta                  89.79779731357547 
_cell_angle_gamma                 90.00440307440148 
loop_ 
_atom_site_label 
_atom_site_type_symbol 
_atom_site_fract_x 
_atom_site_fract_y 
_atom_site_fract_z 
_atom_site_charge 
N1          N  0.74063309  0.91948238  0.42644474    -0.02600
C2          C  0.75321339  0.90127661  0.42859154     0.00000
C3          C  0.74136436  0.88308285  0.42305296    -0.22900
C4          C  0.72136249  0.88994248  0.41659740    -0.23100
C5          C  0.72130846  0.91216642  0.41836648    -0.00100
H6          H  0.74734613  0.86665681  0.42196196     0.13700
H7          H  0.70906205  0.88001043  0.40904127     0.13700
N8          N  0.74595251  0.92448542  0.53708158    -0.02600
C9          C  0.76541987  0.91498050  0.54159130     0.00000
C10         C  0.76665666  0.90936890  0.56314755    -0.22900
C11         C  0.74734184  0.91504372  0.57236946    -0.23100
C12         C  0.73451876  0.92367106  0.55612100    -0.00100
H13         H  0.77959442  0.90046262  0.57093623     0.13700
H14         H  0.74277484  0.91216342  0.58906556     0.13700
N15         N  0.74390235  0.03343643  0.42203477    -0.02600
C16         C  0.75594274  0.05212635  0.42266384     0.00000
C17         C  0.75103490  0.06540168  0.40537402    -0.22900
C18         C  0.73544714  0.05516187  0.39367518    -0.23100
C19         C  0.73117960  0.03586061  0.40406701    -0.00100
H20         H  0.75795887  0.08111264  0.40184378     0.13700
H21         H  0.72781632  0.06118082  0.37908566     0.13700
N22         N  0.74290299  0.03627600  0.53285967    -0.02600
C23         C  0.72389483  0.04359454  0.54150218     0.00000
C24         C  0.72515153  0.06539925  0.54600738    -0.22900
C25         C  0.74567948  0.07178257  0.54061018    -0.23100
C26         C  0.75645110  0.05369581  0.53292139    -0.00100
H27         H  0.71332316  0.07500447  0.55473623     0.13700
H28         H  0.75269788  0.08747677  0.54394040     0.13700
N29         N  0.74027947  0.97715319  0.44552160    -0.35700
N30         N  0.74329222  0.01136902  0.47792630    -0.56300
N31         N  0.74269286  0.97968059  0.51264503    -0.35700
N32         N  0.74173744  0.94547186  0.48077585    -0.56300
C33         C  0.74610433  0.99436033  0.43307357     0.27900
C34         C  0.74528160  0.95879677  0.43450817     0.27900
C35         C  0.74879190  0.99776189  0.52338597     0.27900
C36         C  0.74865844  0.96245207  0.52477661     0.27900
C37         C  0.73755402  0.02266658  0.46003449     0.36500
C38         C  0.73789867  0.02381652  0.49518762     0.36500
C39         C  0.73601004  0.93277488  0.46388506     0.36500
C40         C  0.73752042  0.93400308  0.49906375     0.36500
C41         C  0.75499735  0.98679407  0.41387988    -0.21000
C42         C  0.75422729  0.96436125  0.41464885    -0.21000
C43         C  0.75887848  0.99207071  0.54253913    -0.21000
C44         C  0.75875217  0.96972518  0.54347794    -0.21000
C45         C  0.72815644  0.04208369  0.46590612    -0.22100
C46         C  0.72857011  0.04296393  0.48817378    -0.22100
C47         C  0.72785301  0.91328939  0.47164543    -0.22100
C48         C  0.72886449  0.91410955  0.49390482    -0.22100
C49         C  0.74252919  0.01652137  0.43851812    -0.17400
C50         C  0.74095462  0.93735009  0.44177941    -0.17400
C51         C  0.74336426  0.94058212  0.52014656    -0.17400
C52         C  0.74357300  0.01903831  0.51694015    -0.17400
H53         H  0.76176941  0.99642491  0.40091774     0.15500
H54         H  0.75993657  0.95341429  0.40220583     0.15500
H55         H  0.76547592  0.00288582  0.55461291     0.15500
H56         H  0.76507496  0.96001497  0.55660600     0.15500
H57         H  0.72172621  0.05432597  0.45517966     0.13800
H58         H  0.72290264  0.05631777  0.49796687     0.13800
H59         H  0.72215989  0.89963247  0.46237220     0.13800
H60         H  0.72388183  0.90151848  0.50502645     0.13800
H61         H  0.73142993  0.97789146  0.45990480     0.27000
H62         H  0.73258528  0.97923197  0.49916775     0.27000
N63         N  0.94657622  0.73534769  0.42016786    -0.02600
C64         C  0.94520086  0.72236392  0.40229378     0.00000
C65         C  0.92797710  0.72826453  0.38934623    -0.22900
C66         C  0.91827158  0.74543736  0.39910961    -0.23100
C67         C  0.92975440  0.74956910  0.41782363    -0.00100
H68         H  0.92305978  0.72079535  0.37428080     0.13700
H69         H  0.90398142  0.75387640  0.39342471     0.13700
N70         N  0.93754180  0.73003075  0.53210910    -0.02600
C71         C  0.93443742  0.71433261  0.54755355     0.00000
C72         C  0.91395602  0.71560758  0.55649870    -0.22900
C73         C  0.90374633  0.73237166  0.54666465    -0.23100
C74         C  0.91812960  0.74096992  0.53175111    -0.00100
H75         H  0.90737745  0.70563413  0.56937558     0.13700
H76         H  0.88739312  0.73785522  0.55004406     0.13700
N77         N  0.05930374  0.73081023  0.42816781    -0.02600
C78         C  0.06127661  0.71625968  0.41150692     0.00000
C79         C  0.07035106  0.72603481  0.39346063    -0.22900
C80         C  0.07507847  0.74676499  0.39903797    -0.23100
C81         C  0.06871360  0.74933383  0.42032658    -0.00100
H82         H  0.07431947  0.71846449  0.37814681     0.13700
H83         H  0.08439148  0.75807581  0.38934913     0.13700
N84         N  0.05005261  0.74033031  0.54056088    -0.02600
C85         C  0.04985666  0.72986569  0.56013857     0.00000
C86         C  0.06320219  0.74005475  0.57485254    -0.22900
C87         C  0.07203410  0.75735683  0.56451970    -0.23100
C88         C  0.06407742  0.75728920  0.54364290    -0.00100
H89         H  0.06634758  0.73516884  0.59140147     0.13700
H90         H  0.08400572  0.76830427  0.57115438     0.13700
N91         N  0.96501637  0.73428948  0.47782507    -0.35700
N92         N  0.99578097  0.73298250  0.51384513    -0.56300
N93         N  0.03216902  0.73488973  0.48272593    -0.35700
N94         N  0.00122756  0.73187809  0.44693463    -0.56300
C95         C  0.95169521  0.72851640  0.49443919     0.27900
C96         C  0.95446256  0.72987024  0.45908114     0.27900
C97         C  0.04290534  0.73207984  0.50169006     0.27900
C98         C  0.04580633  0.72925981  0.46629440     0.27900
C99         C  0.97686362  0.73660196  0.52473069     0.36500
C100        C  0.01212782  0.73964933  0.52698181     0.36500
C101        C  0.98470174  0.73675577  0.43322632     0.36500
C102        C  0.02000040  0.73518690  0.43577655     0.36500
C103        C  0.93260544  0.72019368  0.48607318    -0.21000
C104        C  0.93425633  0.72125619  0.46379632    -0.21000
C105        C  0.06357743  0.72444886  0.49727765    -0.21000
C106        C  0.06546514  0.72277036  0.47496245    -0.21000
C107        C  0.98120617  0.74546288  0.54479321    -0.22100
C108        C  0.00342898  0.74775807  0.54603895    -0.22100
C109        C  0.99300164  0.74322377  0.41342779    -0.22100
C110        C  0.01524474  0.74195934  0.41489556    -0.22100
C111        C  0.95569842  0.73185190  0.51688043    -0.17400
C112        C  0.96220395  0.73420285  0.43783329    -0.17400
C113        C  0.04139181  0.73125066  0.44373954    -0.17400
C114        C  0.03482481  0.73733623  0.52269680    -0.17400
H115        H  0.91890866  0.71391711  0.49508883     0.15500
H116        H  0.92207559  0.71602613  0.45234911     0.15500
H117        H  0.07584641  0.72016710  0.50897497     0.15500
H118        H  0.07964984  0.71734147  0.46613152     0.15500
H119        H  0.96952082  0.75045027  0.55692430     0.13800
H120        H  0.01219553  0.75499268  0.55931586     0.13800
H121        H  0.98393883  0.74849737  0.39943275     0.13800
H122        H  0.02654792  0.74591037  0.40205525     0.13800
H123        H  0.97949042  0.74287380  0.47911024     0.27000
H124        H  0.01718457  0.74247291  0.48110024     0.27000
N125        N  0.25867841  0.92365187  0.42242674    -0.02600
C126        C  0.24616937  0.90532712  0.42152407     0.00000
C127        C  0.25418098  0.89111901  0.40622975    -0.22900
C128        C  0.27208338  0.90049514  0.39731100    -0.23100
C129        C  0.27464729  0.92030161  0.40724391    -0.00100
H130        H  0.24760759  0.87543152  0.40206416     0.13700
H131        H  0.28177971  0.89398069  0.38418663     0.13700
N132        N  0.24777633  0.93359922  0.53421277    -0.02600
C133        C  0.22685190  0.92758422  0.53870436     0.00000
C134        C  0.22298146  0.92733291  0.56069601    -0.22900
C135        C  0.24210485  0.93215857  0.57046782    -0.23100
C136        C  0.25737951  0.93526030  0.55422012    -0.00100
H137        H  0.20851981  0.92146141  0.56880425     0.13700
H138        H  0.24503634  0.93147762  0.58774360     0.13700
N139        N  0.24768871  0.03585496  0.41371819    -0.02600
C140        C  0.22965037  0.04871422  0.41192212     0.00000
C141        C  0.22912138  0.05890106  0.39205895    -0.22900
C142        C  0.24710922  0.05242908  0.38099497    -0.23100
C143        C  0.25827477  0.03826094  0.39425434    -0.00100
H144        H  0.21715096  0.07044665  0.38650612     0.13700
H145        H  0.25151921  0.05730376  0.36470534     0.13700
N146        N  0.26075755  0.04405924  0.52598081    -0.02600
C147        C  0.24992029  0.06329703  0.52808871     0.00000
C148        C  0.25868791  0.07545980  0.54469123    -0.22900
C149        C  0.27524983  0.06378490  0.55328899    -0.23100
C150        C  0.27629774  0.04467352  0.54188866    -0.00100
H151        H  0.25300409  0.09096768  0.55053687     0.13700
H152        H  0.28499766  0.06831186  0.56712773     0.13700
N153        N  0.25661886  0.98162635  0.44025858    -0.35700
N154        N  0.25437163  0.95111247  0.47653221    -0.56300
N155        N  0.25595551  0.98733101  0.50678793    -0.35700
N156        N  0.25450099  0.01793595  0.47104473    -0.56300
C157        C  0.25262987  0.96268417  0.42982572     0.27900
C158        C  0.25032951  0.99801031  0.42695656     0.27900
C159        C  0.24871224  0.97110645  0.51979333     0.27900
C160        C  0.25163673  0.00624931  0.51707256     0.27900
C161        C  0.25951790  0.93720420  0.46031774     0.36500
C162        C  0.25700030  0.94019581  0.49546012     0.36500
C163        C  0.25713318  0.02884677  0.45212531     0.36500
C164        C  0.25961443  0.03183469  0.48730142     0.36500
C165        C  0.24386568  0.96707426  0.40968328    -0.21000
C166        C  0.24235396  0.98928865  0.40787785    -0.21000
C167        C  0.23948504  0.98006299  0.53829903    -0.21000
C168        C  0.24140109  0.00215637  0.53655477    -0.21000
C169        C  0.26567777  0.91750007  0.46907136    -0.22100
C170        C  0.26380861  0.91932475  0.49128947    -0.22100
C171        C  0.26393860  0.04974101  0.45637002    -0.22100
C172        C  0.26563388  0.05161435  0.47860752    -0.22100
C173        C  0.25710974  0.94153219  0.43777563    -0.17400
C174        C  0.25228088  0.02061365  0.43116832    -0.17400
C175        C  0.25750620  0.02713740  0.50982652    -0.17400
C176        C  0.25196547  0.94850093  0.51630629    -0.17400
H177        H  0.23854696  0.95542793  0.39776618     0.15500
H178        H  0.23590391  0.99799159  0.39411424     0.15500
H179        H  0.23215819  0.97175787  0.55185241     0.15500
H180        H  0.23570996  0.01394744  0.54821117     0.15500
H181        H  0.27095945  0.90327203  0.46036514     0.13800
H182        H  0.26740732  0.90688574  0.50305275     0.13800
H183        H  0.26761430  0.06220928  0.44460703     0.13800
H184        H  0.27060326  0.06593143  0.48732845     0.13800
H185        H  0.26489658  0.98325066  0.45482498     0.27000
H186        H  0.26553602  0.98562037  0.49296528     0.27000
N187        N  0.44762543  0.92634774  0.21787727    -0.02600
C188        C  0.42941588  0.92645680  0.23071544     0.00000
C189        C  0.41511653  0.91045572  0.22461202    -0.22900
C190        C  0.42436391  0.89987882  0.20767730    -0.23100
C191        C  0.44425248  0.90947858  0.20385012    -0.00100
H192        H  0.39959822  0.90672585  0.23200693     0.13700
H193        H  0.41773166  0.88587452  0.19951828     0.13700
N194        N  0.56046913  0.92473487  0.21402902    -0.02600
C195        C  0.57752003  0.92102077  0.22763204     0.00000
C196        C  0.59218064  0.90690276  0.21829843    -0.22900
C197        C  0.58440452  0.90186505  0.19829816    -0.23100
C198        C  0.56508078  0.91287202  0.19588697    -0.00100
H199        H  0.60731054  0.90131249  0.22519736     0.13700
H200        H  0.59147552  0.89037768  0.18708173     0.13700
N201        N  0.44899719  0.03880013  0.21574004    -0.02600
C202        C  0.44757742  0.05547671  0.20106092     0.00000
C203        C  0.42929325  0.06780007  0.20471734    -0.22900
C204        C  0.41884663  0.05897434  0.22197499    -0.23100
C205        C  0.43079439  0.04124269  0.22850459    -0.00100
H206        H  0.42430861  0.08207074  0.19584991     0.13700
H207        H  0.40370984  0.06463360  0.22890514     0.13700
N208        N  0.56218144  0.03664649  0.21717518    -0.02600
C209        C  0.56531301  0.05331758  0.20292378     0.00000
C210        C  0.58390599  0.06472589  0.20777202    -0.22900
C211        C  0.59287566  0.05505322  0.22537060    -0.23100
C212        C  0.57965699  0.03782357  0.23077521    -0.00100
H213        H  0.59017031  0.07878835  0.19935509     0.13700
H214        H  0.60788078  0.05970767  0.23316605     0.13700
N215        N  0.47137509  0.98215401  0.21841140    -0.35700
N216        N  0.50452986  0.94799852  0.21612499    -0.56300
N217        N  0.53834445  0.98106264  0.21775905    -0.35700
N218        N  0.50516757  0.01520669  0.21586047    -0.56300
C219        C  0.45942040  0.96445248  0.21314752     0.27900
C220        C  0.45953256  0.99997438  0.21311197     0.27900
C221        C  0.55014385  0.96329503  0.21240772     0.27900
C222        C  0.55054390  0.99866384  0.21280869     0.27900
C223        C  0.48676456  0.93582907  0.22068751     0.36500
C224        C  0.52212088  0.93545413  0.22022052     0.36500
C225        C  0.48763895  0.02780356  0.22037016     0.36500
C226        C  0.52307352  0.02707382  0.22066961     0.36500
C227        C  0.43999757  0.97114468  0.20414438    -0.21000
C228        C  0.43994572  0.99349051  0.20432749    -0.21000
C229        C  0.57002210  0.96971814  0.20402793    -0.21000
C230        C  0.57022299  0.99202326  0.20421158    -0.21000
C231        C  0.49311181  0.91555442  0.22778026    -0.22100
C232        C  0.51550416  0.91538044  0.22760062    -0.22100
C233        C  0.49446648  0.04764929  0.22811333    -0.22100
C234        C  0.51685838  0.04709360  0.22847340    -0.22100
C235        C  0.46495182  0.94245094  0.21740174    -0.17400
C236        C  0.46560754  0.02190242  0.21674335    -0.17400
C237        C  0.54493716  0.02050785  0.21704117    -0.17400
C238        C  0.54396000  0.94145054  0.21597746    -0.17400
H239        H  0.42726067  0.96091268  0.19785861     0.15500
H240        H  0.42704361  0.00379249  0.19844608     0.15500
H241        H  0.58303583  0.95940921  0.19834273     0.15500
H242        H  0.58330636  0.00223626  0.19852346     0.15500
H243        H  0.48269571  0.90234556  0.23273325     0.13800
H244        H  0.52577082  0.90214682  0.23268404     0.13800
H245        H  0.48433944  0.06091502  0.23344927     0.13800
H246        H  0.52740745  0.05971750  0.23437031     0.13800
H247        H  0.48576473  0.98205482  0.22716954     0.27000
H248        H  0.52380628  0.98118241  0.22635130     0.27000
N249        N  0.43425793  0.72876669  0.93116644    -0.02600
C250        C  0.42942175  0.74666409  0.91897789     0.00000
C251        C  0.40779681  0.74674328  0.91322018    -0.22900
C252        C  0.39873384  0.72856499  0.92180504    -0.23100
C253        C  0.41499483  0.71780489  0.93269946    -0.00100
H254        H  0.39971713  0.75839109  0.90291462     0.13700
H255        H  0.38192730  0.72366798  0.92039596     0.13700
N256        N  0.54393305  0.70861674  0.90923618    -0.02600
C257        C  0.55363050  0.68885820  0.90600502     0.00000
C258        C  0.55694252  0.68529801  0.88416889    -0.22900
C259        C  0.54963735  0.70314049  0.87346286    -0.23100
C260        C  0.54162465  0.71721606  0.88890997    -0.00100
H261        H  0.56556862  0.67186011  0.87691554     0.13700
H262        H  0.55054558  0.70581495  0.85614426     0.13700
N263        N  0.45842714  0.71119519  0.03939925    -0.02600
C264        C  0.45994806  0.72148668  0.05888906     0.00000
C265        C  0.45257916  0.70830520  0.07542958    -0.22900
C266        C  0.44675464  0.68918345  0.06625605    -0.23100
C267        C  0.45012224  0.69118911  0.04421508    -0.00100
H268        H  0.45118372  0.71236444  0.09243430     0.13700
H269        H  0.43872448  0.67593973  0.07452047     0.13700
N270        N  0.56671343  0.73380024  0.01736884    -0.02600
C271        C  0.58724138  0.72538615  0.01621707     0.00000
C272        C  0.60117499  0.73619471  0.02993205    -0.22900
C273        C  0.58938905  0.75181288  0.03994441    -0.23100
C274        C  0.56844337  0.75007567  0.03235556    -0.00100
H275        H  0.61808190  0.73252292  0.03292075     0.13700
H276        H  0.59518776  0.76269886  0.05238017     0.13700
N277        N  0.49375010  0.72182987  0.94152622    -0.35700
N278        N  0.46817900  0.71992023  0.98063063    -0.56300
N279        N  0.50810303  0.72385294  0.00643683    -0.35700
N280        N  0.53386336  0.72073646  0.96758508    -0.56300
C281        C  0.47342827  0.71877641  0.93357395     0.27900
C282        C  0.50806862  0.71323393  0.92714255     0.27900
C283        C  0.49405435  0.71548023  0.02121206     0.27900
C284        C  0.52842636  0.72162478  0.01454427     0.27900
C285        C  0.45274735  0.72715425  0.96680174     0.36500
C286        C  0.46008918  0.72242179  0.00090854     0.36500
C287        C  0.54205293  0.72181731  0.94718808     0.36500
C288        C  0.54929991  0.72862837  0.98110522     0.36500
C289        C  0.47474011  0.70829575  0.91385965    -0.21000
C290        C  0.49652655  0.70444923  0.90996775    -0.21000
C291        C  0.50572843  0.70767763  0.03875800    -0.21000
C292        C  0.52738444  0.71178237  0.03462280    -0.21000
C293        C  0.43501107  0.73462766  0.97841518    -0.22100
C294        C  0.43951552  0.73124178  0.00003441    -0.22100
C295        C  0.56277370  0.73038161  0.94767842    -0.22100
C296        C  0.56721301  0.73508336  0.96909476    -0.22100
C297        C  0.45384807  0.72523202  0.94390575    -0.17400
C298        C  0.53121262  0.71464669  0.92825574    -0.17400
C299        C  0.54784523  0.72831170  0.00417088    -0.17400
C300        C  0.47098464  0.71640880  0.02010646    -0.17400
H301        H  0.46136233  0.70328473  0.90373427     0.15500
H302        H  0.50307167  0.69612902  0.89599914     0.15500
H303        H  0.49934682  0.69989868  0.05313442     0.15500
H304        H  0.54090012  0.70734331  0.04483687     0.15500
H305        H  0.42042833  0.74188391  0.97198247     0.13800
H306        H  0.42929267  0.73565971  0.01359122     0.13800
H307        H  0.57327803  0.73355680  0.93395858     0.13800
H308        H  0.58196734  0.74235047  0.97506939     0.13800
H309        H  0.49758476  0.73111795  0.95503495     0.27000
H310        H  0.50404893  0.73258419  0.99259645     0.27000
N311        N  0.43857922  0.92935110  0.73827256    -0.02600
C312        C  0.41950732  0.92829235  0.72700127     0.00000
C313        C  0.40399491  0.91715090  0.73873470    -0.22900
C314        C  0.41331338  0.91130809  0.75784372    -0.23100
C315        C  0.43441577  0.91876955  0.75737131    -0.00100
H316        H  0.38754402  0.91357365  0.73378133     0.13700
H317        H  0.40596232  0.90123913  0.77021907     0.13700
N318        N  0.55043336  0.91751576  0.72792591    -0.02600
C319        C  0.56627742  0.91518888  0.71248922     0.00000
C320        C  0.57750116  0.89611407  0.71522730    -0.22900
C321        C  0.56866421  0.88606438  0.73276090    -0.23100
C322        C  0.55217449  0.89918947  0.74032618    -0.00100
H323        H  0.59097979  0.89030291  0.70555179     0.13700
H324        H  0.57342471  0.87046754  0.73916471     0.13700
N325        N  0.44976949  0.03998681  0.72220068    -0.02600
C326        C  0.44950175  0.06027918  0.73119082     0.00000
C327        C  0.43553476  0.07373931  0.72007912    -0.22900
C328        C  0.42674919  0.06191453  0.70381092    -0.23100
C329        C  0.43528498  0.04136623  0.70539004    -0.00100
H330        H  0.43179552  0.09044155  0.72378978     0.13700
H331        H  0.41443769  0.06737200  0.69258164     0.13700
N332        N  0.56127572  0.02897108  0.73911393    -0.02600
C333        C  0.56377351  0.04026444  0.75806523     0.00000
C334        C  0.58482786  0.04730826  0.76041134    -0.22900
C335        C  0.59587684  0.04069266  0.74258005    -0.23100
C336        C  0.58150866  0.02922870  0.72974159    -0.00100
H337        H  0.59106265  0.05773831  0.77302825     0.13700
H338        H  0.61274721  0.04425444  0.73915101     0.13700
N339        N  0.49656794  0.94575790  0.73316116    -0.35700
N340        N  0.46672270  0.98249169  0.72968058    -0.56300
N341        N  0.50346641  0.01229883  0.73217809    -0.35700
N342        N  0.53346998  0.97546339  0.73111588    -0.56300
C343        C  0.47738840  0.93567739  0.72944949     0.27900
C344        C  0.51271029  0.93193237  0.72739260     0.27900
C345        C  0.48758184  0.02574866  0.72493389     0.27900
C346        C  0.52284329  0.02227858  0.72886229     0.27900
C347        C  0.45275661  0.96678075  0.73615714     0.36500
C348        C  0.45615041  0.00160733  0.73212899     0.36500
C349        C  0.54372076  0.95640180  0.73500807     0.36500
C350        C  0.54731946  0.99139685  0.73722782     0.36500
C351        C  0.48131543  0.91525296  0.72117680    -0.21000
C352        C  0.50360865  0.91295118  0.71969985    -0.21000
C353        C  0.49712319  0.04432326  0.71669125    -0.21000
C354        C  0.51927733  0.04230515  0.71952388    -0.21000
C355        C  0.43344790  0.97604804  0.74297998    -0.22100
C356        C  0.43545261  0.99805145  0.74005930    -0.22100
C357        C  0.56406744  0.96023582  0.74353268    -0.22100
C358        C  0.56633856  0.98233736  0.74503752    -0.22100
C359        C  0.45656549  0.94414659  0.73445177    -0.17400
C360        C  0.53532143  0.93554273  0.73027117    -0.17400
C361        C  0.54354548  0.01398838  0.73473801    -0.17400
C362        C  0.46472971  0.02220187  0.72671926    -0.17400
H363        H  0.46934303  0.90339764  0.71640210     0.15500
H364        H  0.51214038  0.89888702  0.71369529     0.15500
H365        H  0.48899549  0.05786534  0.70920145     0.15500
H366        H  0.53141119  0.05400335  0.71469973     0.15500
H367        H  0.41940933  0.96781452  0.74952015     0.13800
H368        H  0.42330630  0.01011750  0.74385447     0.13800
H369        H  0.57585324  0.94828971  0.74856620     0.13800
H370        H  0.58041034  0.99069847  0.75126885     0.13800
H371        H  0.49841662  0.96029728  0.74139806     0.27000
H372        H  0.50123239  0.99807571  0.74090777     0.27000
N373        N  0.45523809  0.24901406  0.91043238    -0.02600
C374        C  0.44366567  0.26770444  0.90736097     0.00000
C375        C  0.43611011  0.26893408  0.88636327    -0.22900
C376        C  0.44287168  0.25072732  0.87599193    -0.23100
C377        C  0.45459718  0.23879517  0.89079980    -0.00100
H378        H  0.42530880  0.28107357  0.87978301     0.13700
H379        H  0.43923396  0.24633391  0.85941772     0.13700
N380        N  0.56602247  0.23148397  0.92198734    -0.02600
C381        C  0.56762876  0.21516324  0.90705210     0.00000
C382        C  0.58772422  0.21520945  0.89717409    -0.22900
C383        C  0.59910328  0.23187012  0.90590570    -0.23100
C384        C  0.58577876  0.24163840  0.92108184    -0.00100
H385        H  0.59325759  0.20452345  0.88441117     0.13700
H386        H  0.61554884  0.23643330  0.90167791     0.13700
N387        N  0.44281418  0.22937929  0.02113392    -0.02600
C388        C  0.42299389  0.23932301  0.02257021     0.00000
C389        C  0.40995595  0.22920748  0.03774247    -0.22900
C390        C  0.42157961  0.21244408  0.04597064    -0.23100
C391        C  0.44151905  0.21277724  0.03578242    -0.00100
H392        H  0.39365635  0.23378474  0.04247730     0.13700
H393        H  0.41641820  0.20160097  0.05877847     0.13700
N394        N  0.55390088  0.24307329  0.03387175    -0.02600
C395        C  0.55331107  0.23135196  0.05269518     0.00000
C396        C  0.55682480  0.24472357  0.07028852    -0.22900
C397        C  0.56081684  0.26492568  0.06230326    -0.23100
C398        C  0.55968017  0.26354227  0.04001048    -0.00100
H399        H  0.55800082  0.23996108  0.08712123     0.13700
H400        H  0.56681339  0.27848482  0.07161729     0.13700
N401        N  0.47102983  0.24061124  0.96809616    -0.35700
N402        N  0.50816982  0.23853340  0.93867796    -0.56300
N403        N  0.53793302  0.23847408  0.97580215    -0.35700
N404        N  0.50075945  0.23591503  0.00493699    -0.56300
C405        C  0.46123822  0.23795779  0.94863586     0.27900
C406        C  0.45737734  0.23286908  0.98357073     0.27900
C407        C  0.55182152  0.23268837  0.95971750     0.27900
C408        C  0.54802926  0.23495843  0.99498375     0.27900
C409        C  0.49272478  0.24609074  0.92494685     0.36500
C410        C  0.52760960  0.24141888  0.92863651     0.36500
C411        C  0.48141590  0.23901393  0.01509425     0.36500
C412        C  0.51642961  0.24173640  0.01921931     0.36500
C413        C  0.44113751  0.22846323  0.95167663    -0.21000
C414        C  0.43882181  0.22497724  0.97370708    -0.21000
C415        C  0.57100756  0.22537559  0.96892301    -0.21000
C416        C  0.56872655  0.22717006  0.99115904    -0.21000
C417        C  0.50247086  0.25399431  0.90630521    -0.22100
C418        C  0.52449811  0.25083579  0.90856238    -0.22100
C419        C  0.48474621  0.24681768  0.03575326    -0.22100
C420        C  0.50683928  0.24856168  0.03840956    -0.22100
C421        C  0.46990505  0.24442927  0.92834885    -0.17400
C422        C  0.46076686  0.23401598  0.00634103    -0.17400
C423        C  0.53925869  0.23955678  0.01573159    -0.17400
C424        C  0.54816134  0.23528732  0.93706335    -0.17400
H425        H  0.42965942  0.22393358  0.93925376     0.15500
H426        H  0.42513786  0.21729710  0.98154179     0.15500
H427        H  0.58531960  0.21960125  0.96054378     0.15500
H428        H  0.58079164  0.22296583  0.00315011     0.15500
H429        H  0.49455090  0.26140465  0.89256766     0.13800
H430        H  0.53691727  0.25563571  0.89710529     0.13800
H431        H  0.47245478  0.25126770  0.04748443     0.13800
H432        H  0.51477757  0.25429631  0.05288405     0.13800
H433        H  0.48533811  0.24924878  0.97072777     0.27000
H434        H  0.52320860  0.24649927  0.97386858     0.27000
N435        N  0.25109049  0.43589882  0.91631421    -0.02600
C436        C  0.26912841  0.42350171  0.91260655     0.00000
C437        C  0.27035567  0.41708774  0.89125772    -0.22900
C438        C  0.25285349  0.42565232  0.88107974    -0.23100
C439        C  0.24133656  0.43722528  0.89641787    -0.00100
H440        H  0.28240648  0.40653647  0.88406376     0.13700
H441        H  0.24885951  0.42370162  0.86411924     0.13700
N442        N  0.23326069  0.54369335  0.94348363    -0.02600
C443        C  0.21359955  0.54800535  0.93405351     0.00000
C444        C  0.21145096  0.56988229  0.93014562    -0.22900
C445        C  0.23012136  0.57951124  0.93689070    -0.23100
C446        C  0.24327526  0.56334464  0.94495460    -0.00100
H447        H  0.19829707  0.57778729  0.92166116     0.13700
H448        H  0.23390796  0.59657409  0.93578288     0.13700
N449        N  0.23248779  0.41083493  0.02523362    -0.02600
C450        C  0.24188736  0.39098931  0.02263634     0.00000
C451        C  0.22808734  0.37485543  0.02972601    -0.22900
C452        C  0.20966174  0.38471927  0.03694804    -0.23100
C453        C  0.21266242  0.40672895  0.03453898    -0.00100
H454        H  0.23136566  0.35766109  0.03011640     0.13700
H455        H  0.19635215  0.37680044  0.04527345     0.13700
N456        N  0.25779159  0.51747740  0.05098788    -0.02600
C457        C  0.24875089  0.51594235  0.07123603     0.00000
C458        C  0.26177452  0.52575315  0.08650325    -0.22900
C459        C  0.27951077  0.53341779  0.07583714    -0.23100
C460        C  0.27683567  0.52842735  0.05422532    -0.00100
H461        H  0.25844715  0.52750791  0.10364969     0.13700
H462        H  0.29236225  0.54306644  0.08284000     0.13700
N463        N  0.24375718  0.44487056  0.97577673    -0.35700
N464        N  0.24379877  0.46940254  0.01654183    -0.56300
N465        N  0.24697188  0.50925551  0.99197791    -0.35700
N466        N  0.24170273  0.48471006  0.95140000    -0.56300
C467        C  0.23597084  0.42978152  0.98982359     0.27900
C468        C  0.24060115  0.43739972  0.95531916     0.27900
C469        C  0.24544777  0.51672226  0.01262983     0.27900
C470        C  0.23898349  0.52478716  0.97859926     0.27900
C471        C  0.24480960  0.44887691  0.02421825     0.36500
C472        C  0.25196643  0.48239514  0.03221562     0.36500
C473        C  0.24788094  0.47126153  0.93515243     0.36500
C474        C  0.24392667  0.50514084  0.94374843     0.36500
C475        C  0.22755548  0.41266322  0.97798069    -0.21000
C476        C  0.23091122  0.41726106  0.95627843    -0.21000
C477        C  0.23656409  0.53722115  0.01245884    -0.21000
C478        C  0.23227219  0.54225261  0.99106191    -0.21000
C479        C  0.25336659  0.44877955  0.04488810    -0.22100
C480        C  0.25844858  0.46994218  0.04971507    -0.22100
C481        C  0.25421867  0.48327095  0.91725459    -0.22100
C482        C  0.25137990  0.50470596  0.92260874    -0.22100
C483        C  0.23784856  0.43023444  0.01292446    -0.17400
C484        C  0.24646995  0.44834122  0.93588022    -0.17400
C485        C  0.23887105  0.52416940  0.95544552    -0.17400
C486        C  0.25186261  0.50539669  0.03158320    -0.17400
H487        H  0.21990131  0.39822396  0.98427851     0.15500
H488        H  0.22624383  0.40720048  0.94273497     0.15500
H489        H  0.23269229  0.54708890  0.02639701     0.15500
H490        H  0.22493554  0.55709812  0.98540608     0.15500
H491        H  0.25628620  0.43483738  0.05508565     0.13800
H492        H  0.26609530  0.47548091  0.06440973     0.13800
H493        H  0.26027597  0.47729240  0.90192819     0.13800
H494        H  0.25515183  0.51842987  0.91240457     0.13800
H495        H  0.25277109  0.45849373  0.97977886     0.27000
H496        H  0.25489218  0.49516176  0.98727893     0.27000
N497        N  0.95069803  0.42278245  0.72991739    -0.02600
C498        C  0.94424375  0.41336424  0.71091664     0.00000
C499        C  0.92267901  0.40748625  0.71190633    -0.22900
C500        C  0.91549803  0.41259226  0.73216445    -0.23100
C501        C  0.93290105  0.42133930  0.74322126    -0.00100
H502        H  0.91376873  0.39832396  0.69992972     0.13700
H503        H  0.89962979  0.40879425  0.73871191     0.13700
N504        N  0.94194265  0.53470719  0.73036101    -0.02600
C505        C  0.93850296  0.55224023  0.71730032     0.00000
C506        C  0.91958546  0.56281450  0.72296983    -0.22900
C507        C  0.91075370  0.55165840  0.73989039    -0.23100
C508        C  0.92453224  0.53461078  0.74408780    -0.00100
H509        H  0.91300336  0.57726168  0.71556090     0.13700
H510        H  0.89570871  0.55539202  0.74819392     0.13700
N511        N  0.06308734  0.43301720  0.72184686    -0.02600
C512        C  0.08208906  0.43417045  0.73329461     0.00000
C513        C  0.09772104  0.42099544  0.72421259    -0.22900
C514        C  0.08862042  0.41156905  0.70647205    -0.23100
C515        C  0.06759760  0.41911819  0.70510701    -0.00100
H516        H  0.11416784  0.41866844  0.72987018     0.13700
H517        H  0.09637375  0.39999427  0.69581099     0.13700
N518        N  0.05473521  0.54270706  0.73269113    -0.02600
C519        C  0.07190472  0.54260275  0.74678621     0.00000
C520        C  0.08982252  0.55235330  0.73734749    -0.22900
C521        C  0.08376289  0.55922763  0.71728077    -0.23100
C522        C  0.06232773  0.55345774  0.71479379    -0.00100
H523        H  0.10526308  0.55562913  0.74499677     0.13700
H524        H  0.09336737  0.56914387  0.70641502     0.13700
N525        N  0.96928649  0.48057859  0.73097493    -0.35700
N526        N  0.99983737  0.51699590  0.72933515    -0.56300
N527        N  0.03497196  0.48600831  0.72784490    -0.35700
N528        N  0.00477007  0.44969455  0.72636286    -0.56300
C529        C  0.95607607  0.49737738  0.72571009     0.27900
C530        C  0.95863654  0.46197648  0.72610274     0.27900
C531        C  0.04526699  0.50494286  0.72359989     0.27900
C532        C  0.04771821  0.46983848  0.72017311     0.27900
C533        C  0.98123320  0.52722342  0.73494537     0.36500
C534        C  0.01644982  0.52988435  0.73568679     0.36500
C535        C  0.98865855  0.43618405  0.73280940     0.36500
C536        C  0.02377961  0.43920459  0.72976427     0.36500
C537        C  0.93698283  0.48937361  0.71714338    -0.21000
C538        C  0.93843845  0.46709661  0.71764805    -0.21000
C539        C  0.06463541  0.50071079  0.71291104    -0.21000
C540        C  0.06597762  0.47860171  0.71045838    -0.21000
C541        C  0.98602871  0.54656520  0.74510203    -0.22100
C542        C  0.00839734  0.54828969  0.74552656    -0.22100
C543        C  0.99745048  0.41709446  0.74049488    -0.22100
C544        C  0.01974868  0.41912582  0.73876836    -0.22100
C545        C  0.96009234  0.51959401  0.73013092    -0.17400
C546        C  0.96622048  0.44057069  0.73037341    -0.17400
C547        C  0.04449230  0.44744181  0.72392335    -0.17400
C548        C  0.03858524  0.52559361  0.73121596    -0.17400
H549        H  0.92335341  0.49866265  0.71123839     0.15500
H550        H  0.92598987  0.45602009  0.71230257     0.15500
H551        H  0.07676480  0.51222035  0.70765447     0.15500
H552        H  0.07917201  0.46989681  0.70283493     0.15500
H553        H  0.97457562  0.55787775  0.75203260     0.13800
H554        H  0.01767093  0.56129360  0.75264325     0.13800
H555        H  0.98874659  0.40345961  0.74721542     0.13800
H556        H  0.03167414  0.40755166  0.74423006     0.13800
H557        H  0.98372209  0.48164234  0.73962126     0.27000
H558        H  0.02158100  0.48413850  0.73802505     0.27000
N559        N  0.77310556  0.41228507  0.94246573    -0.02600
C560        C  0.79409007  0.40675895  0.93765387     0.00000
C561        C  0.79731433  0.38490108  0.94072248    -0.22900
C562        C  0.77771893  0.37630482  0.94644309    -0.23100
C563        C  0.76281027  0.39309120  0.94669559    -0.00100
H564        H  0.81164185  0.37572118  0.93637457     0.13700
H565        H  0.77426245  0.35920964  0.94801405     0.13700
N566        N  0.74885994  0.51895891  0.91431751    -0.02600
C567        C  0.73072450  0.53127071  0.91084320     0.00000
C568        C  0.72855906  0.53636652  0.88920545    -0.22900
C569        C  0.74557596  0.52709485  0.87866583    -0.23100
C570        C  0.75773110  0.51640277  0.89409435    -0.00100
H571        H  0.71627323  0.54659672  0.88200645     0.13700
H572        H  0.74902556  0.52840267  0.86150299     0.13700
N573        N  0.74716223  0.43797805  0.04805867    -0.02600
C574        C  0.75469925  0.43887014  0.06891165     0.00000
C575        C  0.74094767  0.42766949  0.08270634    -0.22900
C576        C  0.72448120  0.41969850  0.07049648    -0.23100
C577        C  0.72850231  0.42591132  0.04942308    -0.00100
H578        H  0.74294518  0.42516420  0.09995228     0.13700
H579        H  0.71151575  0.40928804  0.07616580     0.13700
N580        N  0.76869949  0.54624367  0.02301277    -0.02600
C581        C  0.76033416  0.56673713  0.02096124     0.00000
C582        C  0.77284304  0.58141693  0.03233063    -0.22900
C583        C  0.78933661  0.57021378  0.04158586    -0.23100
C584        C  0.78664938  0.54884579  0.03592780    -0.00100
H585        H  0.76986015  0.59855799  0.03429242     0.13700
H586        H  0.80139148  0.57674808  0.05250328     0.13700
N587        N  0.76080275  0.44772629  0.99027095    -0.35700
N588        N  0.76270850  0.47139322  0.94948030    -0.56300
N589        N  0.75715788  0.51156959  0.97383437    -0.35700
N590        N  0.75985179  0.48741911  0.01464427    -0.56300
C591        C  0.76991580  0.43268106  0.97705151     0.27900
C592        C  0.76244779  0.44041083  0.01091371     0.27900
C593        C  0.75975723  0.51877519  0.95318146     0.27900
C594        C  0.76417105  0.52735959  0.98748522     0.27900
C595        C  0.76168941  0.45074447  0.94213694     0.36500
C596        C  0.75458179  0.48414713  0.93359378     0.36500
C597        C  0.75241446  0.47386034  0.03029980     0.36500
C598        C  0.75707835  0.50784555  0.02207329     0.36500
C599        C  0.77783736  0.41586763  0.98969997    -0.21000
C600        C  0.77280273  0.42062969  0.01096617    -0.21000
C601        C  0.76835060  0.53942048  0.95359158    -0.21000
C602        C  0.77139589  0.54474994  0.97515752    -0.21000
C603        C  0.75318376  0.45031665  0.92148066    -0.22100
C604        C  0.74827840  0.47141828  0.91621534    -0.22100
C605        C  0.74472336  0.48581280  0.04769881    -0.22100
C606        C  0.74799168  0.50732283  0.04259130    -0.22100
C607        C  0.76829718  0.43230638  0.95395835    -0.17400
C608        C  0.75405056  0.45091542  0.02951375    -0.17400
C609        C  0.76303635  0.52689660  0.01067137    -0.17400
C610        C  0.75429555  0.50716075  0.93405669    -0.17400
H611        H  0.78579074  0.40126917  0.98428457     0.15500
H612        H  0.77647836  0.41069215  0.02488522     0.15500
H613        H  0.77260911  0.54932629  0.93975203     0.15500
H614        H  0.77813750  0.55979564  0.98098896     0.15500
H615        H  0.74996422  0.43620414  0.91166011     0.13800
H616        H  0.74075085  0.47667979  0.90132882     0.13800
H617        H  0.73770689  0.47975390  0.06260457     0.13800
H618        H  0.74354215  0.52104560  0.05251232     0.13800
H619        H  0.75133663  0.46079810  0.98549040     0.27000
H620        H  0.74914398  0.49740313  0.97817913     0.27000
N621        N  0.93148031  0.43525905  0.24995765    -0.02600
C622        C  0.92735731  0.42346446  0.26831447     0.00000
C623        C  0.90548398  0.41910321  0.27027571    -0.22900
C624        C  0.89555924  0.42820896  0.25283769    -0.23100
C625        C  0.91155760  0.43817481  0.24068247    -0.00100
H626        H  0.89776771  0.40905090  0.28244107     0.13700
H627        H  0.87843142  0.42726850  0.24911716     0.13700
N628        N  0.95481341  0.54342584  0.23356071    -0.02600
C629        C  0.95479872  0.56240697  0.24486138     0.00000
C630        C  0.94138523  0.57744733  0.23523861    -0.22900
C631        C  0.93269310  0.56779105  0.21745563    -0.23100
C632        C  0.94099650  0.54708708  0.21662800    -0.00100
H633        H  0.93833408  0.59382176  0.24064169     0.13700
H634        H  0.92102311  0.57489901  0.20647405     0.13700
N635        N  0.03971453  0.41117001  0.22749841    -0.02600
C636        C  0.03788197  0.39122686  0.23699553     0.00000
C637        C  0.04677730  0.37540274  0.22394545    -0.22900
C638        C  0.05410206  0.38541586  0.20571431    -0.23100
C639        C  0.04987514  0.40720961  0.20812147    -0.00100
H640        H  0.04813297  0.35832103  0.22755593     0.13700
H641        H  0.06329318  0.37786552  0.19278598     0.13700
N642        N  0.06436939  0.51994784  0.24906240    -0.02600
C643        C  0.08391194  0.51863904  0.23846920     0.00000
C644        C  0.09945434  0.53109352  0.24854730    -0.22900
C645        C  0.08973089  0.54053896  0.26588167    -0.23100
C646        C  0.06835846  0.53387002  0.26599941    -0.00100
H647        H  0.11611522  0.53343418  0.24341988     0.13700
H648        H  0.09715731  0.55211400  0.27672795     0.13700
N649        N  0.96539964  0.48469096  0.24026083    -0.35700
N650        N  0.00498546  0.51012752  0.24244733    -0.56300
N651        N  0.03045160  0.47027365  0.23747234    -0.35700
N652        N  0.99064201  0.44475914  0.24042117    -0.56300
C653        C  0.95767565  0.50488224  0.24389650     0.27900
C654        C  0.95047062  0.47049189  0.24800353     0.27900
C655        C  0.04584964  0.48409965  0.24506678     0.27900
C656        C  0.03838068  0.44980708  0.23900672     0.27900
C657        C  0.99094873  0.52567693  0.23580522     0.36500
C658        C  0.02525761  0.51823060  0.23966361     0.36500
C659        C  0.97018904  0.43680060  0.23862054     0.36500
C660        C  0.00421702  0.42959606  0.23213389     0.36500
C661        C  0.93770055  0.50362758  0.25407016    -0.21000
C662        C  0.93326327  0.48192923  0.25694856    -0.21000
C663        C  0.06364695  0.47208081  0.25167085    -0.21000
C664        C  0.05914618  0.45055079  0.24740331    -0.21000
C665        C  0.00238976  0.54359526  0.22864687    -0.22100
C666        C  0.02411444  0.53888465  0.23120560    -0.22100
C667        C  0.97071177  0.41649839  0.22932113    -0.22100
C668        C  0.99220947  0.41212876  0.22478674    -0.22100
C669        C  0.96798958  0.52431260  0.23750493    -0.17400
C670        C  0.95109694  0.44763619  0.24545837    -0.17400
C671        C  0.02731384  0.43057495  0.23280916    -0.17400
C672        C  0.04478293  0.50725839  0.24477806    -0.17400
H673        H  0.92757088  0.51697569  0.25919616     0.15500
H674        H  0.91884914  0.47536848  0.26454160     0.15500
H675        H  0.07831870  0.47818238  0.25897848     0.15500
H676        H  0.06965953  0.43693999  0.25074356     0.15500
H677        H  0.99579434  0.55840488  0.22206279     0.13800
H678        H  0.03759091  0.54900208  0.22638165     0.13800
H679        H  0.95698019  0.40628773  0.22552919     0.13800
H680        H  0.99827481  0.39778321  0.21683735     0.13800
H681        H  0.97891464  0.48102300  0.23080964     0.27000
H682        H  0.01611435  0.47454019  0.22973314     0.27000
N683        N  0.92802042  0.23125523  0.43763604    -0.02600
C684        C  0.92602667  0.24931429  0.42490062     0.00000
C685        C  0.90557532  0.25083656  0.41614543    -0.22900
C686        C  0.89421865  0.23351056  0.42342968    -0.23100
C687        C  0.90786176  0.22178101  0.43680320    -0.00100
H688        H  0.89980910  0.26299250  0.40490955     0.13700
H689        H  0.87757205  0.22978142  0.41929533     0.13700
N690        N  0.93963164  0.22220703  0.54957585    -0.02600
C691        C  0.92625692  0.20538947  0.55477729     0.00000
C692        C  0.91700989  0.20850046  0.57491168    -0.22900
C693        C  0.92508035  0.22756182  0.58270542    -0.23100
C694        C  0.93901854  0.23570861  0.56709703    -0.00100
H695        H  0.90533383  0.19810643  0.58292163     0.13700
H696        H  0.92169146  0.23448787  0.59846269     0.13700
N697        N  0.03932674  0.21684129  0.42596836    -0.02600
C698        C  0.04042039  0.22820152  0.40688049     0.00000
C699        C  0.05364286  0.21782219  0.39208933    -0.22900
C700        C  0.06067412  0.19934089  0.40166100    -0.23100
C701        C  0.05193662  0.19891215  0.42226449    -0.00100
H702        H  0.05759965  0.22316083  0.37583161     0.13700
H703        H  0.07206636  0.18789846  0.39477194     0.13700
N704        N  0.05024672  0.22345960  0.53849884    -0.02600
C705        C  0.06009270  0.20450556  0.54434355     0.00000
C706        C  0.06492502  0.20428420  0.56613240    -0.22900
C707        C  0.05865529  0.22376475  0.57423614    -0.23100
C708        C  0.05014183  0.23556220  0.55720006    -0.00100
H709        H  0.07426911  0.19216594  0.57467549     0.13700
H710        H  0.06171649  0.22949615  0.59051480     0.13700
N711        N  0.95567562  0.22343338  0.49123158    -0.35700
N712        N  0.98580125  0.22467207  0.45437493    -0.56300
N713        N  0.02273277  0.22121939  0.48414556    -0.35700
N714        N  0.99266156  0.22332722  0.52058224    -0.56300
C715        C  0.94211323  0.22976406  0.47517739     0.27900
C716        C  0.94589505  0.22807473  0.51038764     0.27900
C717        C  0.03290568  0.22518469  0.46502401     0.27900
C718        C  0.03653770  0.22654334  0.50044538     0.27900
C719        C  0.96654145  0.22099667  0.44431956     0.36500
C720        C  0.00168862  0.21784110  0.44065334     0.36500
C721        C  0.97637540  0.21836228  0.53452075     0.36500
C722        C  0.01138175  0.21796620  0.53069256     0.36500
C723        C  0.92340567  0.23837524  0.48430454    -0.21000
C724        C  0.92577325  0.23720335  0.50653914    -0.21000
C725        C  0.05342781  0.23331336  0.46918960    -0.21000
C726        C  0.05579310  0.23402632  0.49154678    -0.21000
C727        C  0.97021438  0.21159187  0.42434289    -0.22100
C728        C  0.99240755  0.20950875  0.42204582    -0.22100
C729        C  0.98466083  0.20974921  0.55342820    -0.22100
C730        C  0.00681004  0.20942041  0.55100914    -0.22100
C731        C  0.94575253  0.22681930  0.45261490    -0.17400
C732        C  0.95424440  0.22310525  0.53115780    -0.17400
C733        C  0.03247578  0.22326547  0.52295243    -0.17400
C734        C  0.02444621  0.22021478  0.44414506    -0.17400
H735        H  0.90941984  0.24473388  0.47587700     0.15500
H736        H  0.91407014  0.24251660  0.51852006     0.15500
H737        H  0.06534723  0.23841210  0.45733683     0.15500
H738        H  0.07005398  0.23932476  0.50024971     0.15500
H739        H  0.95809282  0.20613744  0.41295842     0.13800
H740        H  0.00075993  0.20232613  0.40840543     0.13800
H741        H  0.97569017  0.20451207  0.56760106     0.13800
H742        H  0.01814233  0.20385754  0.56310157     0.13800
H743        H  0.96982872  0.21445510  0.48927692     0.27000
H744        H  0.00808787  0.21298949  0.48584242     0.27000
O745        O  0.00188945  0.33012264  0.31135986    -0.73500
O746        O  0.96030001  0.30838336  0.35119065    -0.73600
O747        O  0.96118671  0.33982699  0.31944159    -0.73600
O748        O  0.00102974  0.29905976  0.34300779    -0.73700
O749        O  0.01225655  0.32305868  0.36735198    -0.73600
O750        O  0.97120796  0.36427167  0.34383849    -0.73600
O751        O  0.97133573  0.33163669  0.37638538    -0.73600
O752        O  0.01211088  0.35554858  0.33469459    -0.73600
Ni753      Ni  0.98073038  0.31857977  0.33047340     1.25400
Ni754      Ni  0.99211897  0.34459297  0.35652148     1.25400
C755        C  0.01152742  0.34799926  0.31529362     0.88600
C756        C  0.96145305  0.31412739  0.37105844     0.88600
C757        C  0.96169129  0.35946666  0.32595805     0.88600
C758        C  0.01127108  0.30346140  0.36048536     0.88800
O759        O  0.88352532  0.11909447  0.50867746    -0.73500
O760        O  0.84394187  0.09129554  0.46837342    -0.73600
O761        O  0.87326387  0.12619434  0.46775092    -0.73600
O762        O  0.85441210  0.08359025  0.50933276    -0.73700
O763        O  0.82838376  0.10611291  0.52048424    -0.73600
O764        O  0.84638270  0.14766939  0.47855750    -0.73600
O765        O  0.81781937  0.11348233  0.47958639    -0.73600
O766        O  0.85635506  0.14034898  0.51933031    -0.73600
Ni767      Ni  0.86479792  0.10414563  0.48819060     1.25400
Ni768      Ni  0.83635787  0.12758355  0.49984879     1.25400
C769        C  0.87664207  0.13616088  0.51846167     0.88600
C770        C  0.82383613  0.09698358  0.46858276     0.88600
C771        C  0.86412534  0.14483233  0.46804438     0.88600
C772        C  0.83690704  0.08727226  0.52001835     0.88800
O773        O  0.15135704  0.09532940  0.50166168    -0.73500
O774        O  0.10909886  0.11970117  0.46211477    -0.73600
O775        O  0.14483404  0.09041202  0.45991251    -0.73600
O776        O  0.11567781  0.12427696  0.50397092    -0.73700
O777        O  0.13753438  0.15196479  0.49657427    -0.73600
O778        O  0.16713243  0.11810949  0.45405973    -0.73600
O779        O  0.13233944  0.14625823  0.45476023    -0.73600
O780        O  0.17233527  0.12401202  0.49578588    -0.73600
Ni781      Ni  0.12935350  0.10636199  0.48213743     1.25400
Ni782      Ni  0.15304961  0.13597725  0.47504314     1.25400
C783        C  0.16990826  0.10475485  0.50301337     0.88600
C784        C  0.11304458  0.13866415  0.45446855     0.88600
C785        C  0.16272058  0.09795353  0.45222920     0.88600
C786        C  0.12040098  0.14446781  0.50565566     0.88800
O787        O  0.86133419  0.50623429  0.09721251    -0.73500
O788        O  0.88059385  0.46764122  0.14279324    -0.73600
O789        O  0.84932619  0.46717743  0.10936994    -0.73600
O790        O  0.89289887  0.50675338  0.13118691    -0.73700
O791        O  0.86778910  0.52138027  0.15265672    -0.73600
O792        O  0.82569280  0.48140663  0.13262102    -0.73600
O793        O  0.85613958  0.48241319  0.16486996    -0.73600
O794        O  0.83713304  0.52027407  0.12001581    -0.73600
Ni795      Ni  0.87202164  0.48649659  0.11922453     1.25400
Ni796      Ni  0.84592335  0.50190291  0.14324009     1.25400
C797        C  0.84379153  0.51700761  0.10061732     0.88600
C798        C  0.87283355  0.47039887  0.16195434     0.88600
C799        C  0.82972361  0.46941368  0.11623869     0.88600
C800        C  0.88773643  0.51793416  0.14799689     0.88800
O801        O  0.17512567  0.47791418  0.13322696    -0.73500
O802        O  0.13309488  0.43807284  0.15430913    -0.73600
O803        O  0.16447518  0.43833397  0.12212528    -0.73600
O804        O  0.14397976  0.47766588  0.16504008    -0.73700
O805        O  0.11975250  0.49118900  0.14206831    -0.73600
O806        O  0.14047319  0.45107456  0.09853123    -0.73600
O807        O  0.10839978  0.45142672  0.13178903    -0.73600
O808        O  0.15178496  0.49085192  0.10902842    -0.73600
Ni809      Ni  0.15494010  0.45754373  0.14441960     1.25400
Ni810      Ni  0.12916648  0.47160665  0.11943638     1.25400
C811        C  0.17129252  0.48890201  0.11607741     0.88600
C812        C  0.11324086  0.44038397  0.14878018     0.88600
C813        C  0.15776296  0.44015773  0.10259685     0.88600
C814        C  0.12700999  0.48905669  0.16144901     0.88800
O815        O  0.65165724  0.30881209  0.96618504    -0.73500
O816        O  0.67670997  0.34825685  0.00630320    -0.73600
O817        O  0.64467570  0.31665288  0.00744557    -0.73600
O818        O  0.68333804  0.33992000  0.96489683    -0.73700
O819        O  0.65903721  0.36525188  0.95638497    -0.73600
O820        O  0.61952136  0.34085767  0.99859479    -0.73600
O821        O  0.65213494  0.37320955  0.99785277    -0.73600
O822        O  0.62653233  0.33293001  0.95711302    -0.73600
Ni823      Ni  0.66490673  0.32763300  0.98655704     1.25400
Ni824      Ni  0.63836198  0.35401185  0.97717323     1.25400
C825        C  0.63381652  0.31343480  0.95671863     0.88600
C826        C  0.67016264  0.36791909  0.00686721     0.88600
C827        C  0.62487753  0.32298694  0.00778803     0.88600
C828        C  0.67837336  0.35757147  0.95530049     0.88800
O829        O  0.83364190  0.47388272  0.83684455    -0.59100
O830        O  0.87756925  0.43457365  0.81823271    -0.73600
O831        O  0.84448798  0.43462268  0.84894265    -0.73600
O832        O  0.86650030  0.47422329  0.80660332    -0.73700
O833        O  0.88808368  0.48907515  0.83128612    -0.73600
O834        O  0.86805641  0.44726694  0.87306415    -0.73600
O835        O  0.90113623  0.44962604  0.84100846    -0.73600
O836        O  0.85531802  0.48667259  0.86259160    -0.73600
Ni837      Ni  0.85482780  0.45380216  0.82681756     1.25400
Ni838      Ni  0.87903571  0.46857708  0.85293018     1.25400
C839        C  0.83635473  0.48485983  0.85421356     0.88600
C840        C  0.89712100  0.43772921  0.82442591     0.88600
C841        C  0.85086192  0.43641400  0.86860720     0.88600
C842        C  0.88195698  0.48715253  0.81153836     0.88800
O843        O  0.02571806  0.36861779  0.62083218    -0.73500
O844        O  0.98388198  0.32845406  0.59602475    -0.73600
O845        O  0.98371769  0.36249198  0.62647746    -0.73600
O846        O  0.02590364  0.33472961  0.58965764    -0.73700
O847        O  0.03239347  0.31057367  0.61570528    -0.73600
O848        O  0.99203330  0.33976798  0.65314586    -0.73600
O849        O  0.99037157  0.30626884  0.62359676    -0.73600
O850        O  0.03387197  0.34371052  0.64555471    -0.73600
Ni851      Ni  0.00460775  0.34947684  0.60721958     1.25400
Ni852      Ni  0.01242583  0.32427749  0.63533725     1.25400
C853        C  0.03433874  0.36334793  0.63907566     0.88600
C854        C  0.98181255  0.30978469  0.60507041     0.88600
C855        C  0.98278850  0.35716667  0.64656878     0.88600
C856        C  0.03399232  0.31666088  0.59590348     0.88800
O857        O  0.13648620  0.50662142  0.87405269    -0.73500
O858        O  0.11469244  0.47009333  0.82803559    -0.73600
O859        O  0.14738285  0.46811096  0.85949061    -0.73600
O860        O  0.10325624  0.50884303  0.84216320    -0.73700
O861        O  0.12708297  0.52486134  0.82011686    -0.73600
O862        O  0.16989410  0.48298571  0.83550237    -0.73600
O863        O  0.13737745  0.48612681  0.80494968    -0.73600
O864        O  0.15975560  0.52132744  0.85065982    -0.73600
Ni865      Ni  0.12452005  0.48794575  0.85180713     1.25400
Ni866      Ni  0.14925957  0.50438148  0.82702062     1.25400
C867        C  0.15386474  0.51752465  0.87022827     0.88600
C868        C  0.12136913  0.47334277  0.80854902     0.88600
C869        C  0.16661622  0.47057224  0.85182220     0.88600
C870        C  0.10751778  0.52183559  0.82645335     0.88800
O871        O  0.38508145  0.34200622  0.95490132    -0.73500
O872        O  0.34206358  0.36132817  0.99683611    -0.73600
O873        O  0.37705103  0.33131496  0.99547859    -0.73600
O874        O  0.35014068  0.37208973  0.95612898    -0.73700
O875        O  0.32773468  0.34607571  0.94530426    -0.73600
O876        O  0.35430968  0.30600267  0.98373850    -0.73600
O877        O  0.32048908  0.33471942  0.98576749    -0.73600
O878        O  0.36169982  0.31718435  0.94335195    -0.73600
Ni879      Ni  0.36446950  0.35270856  0.97625207     1.25400
Ni880      Ni  0.34033364  0.32519680  0.96415839     1.25400
C881        C  0.38109912  0.32442506  0.94451764     0.88600
C882        C  0.32322122  0.35239081  0.99619485     0.88600
C883        C  0.37152317  0.31131753  0.99398979     0.88600
C884        C  0.33269139  0.36612659  0.94644231     0.88800
O885        O  0.52598024  0.15566015  0.83563626    -0.73500
O886        O  0.48427027  0.12993825  0.79852009    -0.73600
O887        O  0.48478181  0.16302098  0.82808198    -0.73600
O888        O  0.52544028  0.12238232  0.80595014    -0.73700
O889        O  0.51655558  0.09889675  0.83184318    -0.73600
O890        O  0.47563044  0.14064660  0.85484410    -0.73600
O891        O  0.47524247  0.10611649  0.82401788    -0.73600
O892        O  0.51698887  0.13317869  0.86240342    -0.73600
Ni893      Ni  0.50540914  0.14348987  0.81621757     1.25400
Ni894      Ni  0.49570395  0.11880817  0.84429668     1.25400
C895        C  0.52636016  0.15055205  0.85574313     0.88600
C896        C  0.47532563  0.11207732  0.80402766     0.88600
C897        C  0.47605448  0.15977504  0.84665216     0.88600
C898        C  0.52554605  0.10310142  0.81347993     0.88800
O899        O  0.53254358  0.12976187  0.07996756    -0.73500
O900        O  0.48917786  0.09960868  0.11425915    -0.73600
O901        O  0.48972006  0.13154641  0.08140578    -0.73600
O902        O  0.53177929  0.09753693  0.11289592    -0.73700
O903        O  0.53362223  0.12381632  0.13743827    -0.73600
O904        O  0.49204581  0.15703053  0.10668873    -0.73600
O905        O  0.49109559  0.12589390  0.13872514    -0.73600
O906        O  0.53482100  0.15488316  0.10575885    -0.73600
Ni907      Ni  0.51077605  0.11365517  0.09611888     1.25400
Ni908      Ni  0.51294732  0.14126214  0.12294432     1.25400
C909        C  0.53909320  0.14837565  0.08655219     0.88600
C910        C  0.48517873  0.10676511  0.13342588     0.88600
C911        C  0.48575700  0.15087476  0.08794917     0.88600
C912        C  0.53692317  0.10414653  0.13192437     0.88800
O913        O  0.38572351  0.95349616  0.62832822    -0.73500
O914        O  0.35599971  0.99443701  0.59078652    -0.73600
O915        O  0.38642437  0.99588262  0.62502251    -0.73600
O916        O  0.35566093  0.95183745  0.59347493    -0.73700
O917        O  0.32812130  0.95433032  0.61690477    -0.73600
O918        O  0.35959557  0.99699950  0.64918067    -0.73600
O919        O  0.32965580  0.99692806  0.61541750    -0.73600
O920        O  0.35721093  0.95458810  0.65054612    -0.73600
Ni921      Ni  0.37195786  0.97380359  0.60847277     1.25400
Ni922      Ni  0.34272557  0.97582020  0.63378132     1.25400
C923        C  0.37713104  0.94991706  0.64703672     0.88600
C924        C  0.33675318  0.00051896  0.59623148     0.88600
C925        C  0.37925454  0.00140192  0.64377130     0.88600
C926        C  0.33595669  0.94770209  0.59883475     0.88800
O927        O  0.51540911  0.81711457  0.85866800    -0.73500
O928        O  0.47722963  0.86212758  0.83640028    -0.73600
O929        O  0.47477597  0.82782128  0.86734380    -0.73600
O930        O  0.51782871  0.85162098  0.82823453    -0.73700
O931        O  0.50589383  0.82961084  0.80244199    -0.73600
O932        O  0.46426825  0.80527369  0.84132818    -0.73600
O933        O  0.46533300  0.83878617  0.81177062    -0.73600
O934        O  0.50469998  0.79587743  0.83167330    -0.73600
Ni935      Ni  0.49670472  0.84053248  0.84870326     1.25400
Ni936      Ni  0.48466707  0.81667607  0.82098207     1.25400
C937        C  0.51443816  0.79829545  0.84979414     0.88600
C938        C  0.46738118  0.85823937  0.81844463     0.88600
C939        C  0.46468119  0.81065847  0.86136606     0.88600
C940        C  0.51685853  0.84624449  0.80814627     0.88800
O941        O  0.33362191  0.60709961  0.02174055    -0.73500
O942        O  0.35473981  0.64941711  0.98225887    -0.73600
O943        O  0.32162811  0.61995733  0.98305074    -0.73600
O944        O  0.36678562  0.63675969  0.02100723    -0.73700
O945        O  0.38942778  0.61334267  0.00552077    -0.73600
O946        O  0.34241604  0.59441116  0.96847542    -0.73600
O947        O  0.37640982  0.62519797  0.96666827    -0.73600
O948        O  0.35536992  0.58222516  0.00727549    -0.73600
Ni949      Ni  0.34350742  0.62908047  0.00253125     1.25400
Ni950      Ni  0.36678105  0.60280530  0.98645394     1.25400
C951        C  0.33883807  0.58725579  0.01898885     0.88600
C952        C  0.37061268  0.64494840  0.96962339     0.88600
C953        C  0.32358939  0.60285182  0.97161606     0.88600
C954        C  0.38612468  0.63033904  0.01706687     0.88800
O955        O  0.52738963  0.80540606  0.10896758    -0.73500
O956        O  0.48713448  0.83448976  0.14599753    -0.73600
O957        O  0.48571716  0.80102562  0.11691262    -0.73600
O958        O  0.52887180  0.83881247  0.13847153    -0.73700
O959        O  0.52042772  0.86352307  0.11360912    -0.73600
O960        O  0.47985345  0.82251744  0.08861403    -0.73600
O961        O  0.47858316  0.85710943  0.11931258    -0.73600
O962        O  0.52147500  0.82958192  0.08291279    -0.73600
Ni963      Ni  0.50752655  0.81916357  0.12845542     1.25400
Ni964      Ni  0.49974944  0.84411364  0.10009011     1.25400
C965        C  0.52920769  0.81133044  0.08912101     0.88600
C966        C  0.47808805  0.85196165  0.13950536     0.88600
C967        C  0.47891103  0.80373148  0.09755633     0.88600
C968        C  0.52918067  0.85837281  0.13177946     0.88800
O969        O  0.38405213  0.00692618  0.31785492    -0.73500
O970        O  0.35608539  0.96432604  0.35490990    -0.73600
O971        O  0.38856417  0.96475472  0.32170928    -0.73600
O972        O  0.35118984  0.00651594  0.35089284    -0.73700
O973        O  0.32717920  0.00219937  0.32451430    -0.73600
O974        O  0.36194609  0.95891762  0.29813360    -0.73600
O975        O  0.33054609  0.96018056  0.32989495    -0.73600
O976        O  0.35885731  0.00093634  0.29291531    -0.73600
Ni977      Ni  0.37097343  0.98583365  0.33734586     1.25400
Ni978      Ni  0.34382596  0.98039435  0.31058613     1.25400
C979        C  0.37740728  0.00862705  0.29816580     0.88600
C980        C  0.33715745  0.95756245  0.34936821     0.88600
C981        C  0.38194655  0.95741587  0.30337406     0.88600
C982        C  0.33181604  0.00899521  0.34349189     0.88800
O983        O  0.17313296  0.84526889  0.50360410    -0.73500
O984        O  0.14496584  0.80798209  0.46293580    -0.73600
O985        O  0.17733079  0.83903147  0.46170802    -0.73600
O986        O  0.14089289  0.81403100  0.50487980    -0.73700
O987        O  0.11507691  0.83814634  0.49779242    -0.73600
O988        O  0.15379163  0.86575023  0.45654623    -0.73600
O989        O  0.12090268  0.83376588  0.45567567    -0.73600
O990        O  0.14764798  0.87020996  0.49849807    -0.73600
Ni991      Ni  0.15991319  0.82572322  0.48349248     1.25400
Ni992      Ni  0.13340397  0.85291307  0.47688846     1.25400
C993        C  0.16633630  0.86474930  0.50580971     0.88600
C994        C  0.12700262  0.81394085  0.45439395     0.88600
C995        C  0.17306723  0.85800011  0.45459128     0.88600
C996        C  0.12106182  0.82008844  0.50620712     0.88800
O997        O  0.02836244  0.58825413  0.34805046    -0.73500
O998        O  0.98746511  0.63034065  0.37024519    -0.73600
O999        O  0.98829135  0.59877984  0.33782067    -0.73600
O1000       O  0.02782626  0.62025101  0.38122970    -0.73700
O1001       O  0.04092348  0.64394270  0.35725859    -0.73600
O1002       O  0.00090180  0.62357081  0.31486205    -0.73600
O1003       O  0.00058895  0.65434413  0.34671686    -0.73600
O1004       O  0.04084308  0.61298220  0.32493211    -0.73600
Ni1005     Ni  0.00762500  0.60850046  0.36031169     1.25400
Ni1006     Ni  0.02129598  0.63454587  0.33523648     1.25400
C1007       C  0.03870729  0.59315797  0.33058080     0.88600
C1008       C  0.98832491  0.64975236  0.36287101     0.88600
C1009       C  0.98986797  0.60640114  0.31852021     0.88600
C1010       C  0.03925295  0.63706987  0.37677112     0.88800
O1011       O  0.85287832  0.81058249  0.49184710    -0.73500
O1012       O  0.82740887  0.84674944  0.44872019    -0.73600
O1013       O  0.85747965  0.81407210  0.44966142    -0.73600
O1014       O  0.82249909  0.84358299  0.49109265    -0.73700
O1015       O  0.84886054  0.86759737  0.49624526    -0.73600
O1016       O  0.88453581  0.83732895  0.45449025    -0.73600
O1017       O  0.85329716  0.87140278  0.45384266    -0.73600
O1018       O  0.87987603  0.83395030  0.49664735    -0.73600
Ni1019     Ni  0.83918954  0.82798200  0.47018755     1.25400
Ni1020     Ni  0.86761818  0.85355723  0.47542888     1.25400
C1021       C  0.87187665  0.81491167  0.49910287     0.88600
C1022       C  0.83482395  0.86585948  0.44594024     0.88600
C1023       C  0.87761314  0.81882356  0.44802629     0.88600
C1024       C  0.82904457  0.86162053  0.49887306     0.88800
O1025       O  0.64574120  0.99520562  0.35605829    -0.73500
O1026       O  0.61398617  0.95292117  0.32223648    -0.73600
O1027       O  0.64364793  0.95254689  0.35767069    -0.73600
O1028       O  0.61614434  0.99548893  0.32110380    -0.73700
O1029       O  0.64355550  0.99224841  0.29777662    -0.73600
O1030       O  0.67147682  0.95141971  0.33467796    -0.73600
O1031       O  0.64284637  0.94974054  0.30074906    -0.73600
O1032       O  0.67228832  0.99377636  0.33156098    -0.73600
Ni1033     Ni  0.62880133  0.97407008  0.34020468     1.25400
Ni1034     Ni  0.65842086  0.97171121  0.31544328     1.25400
C1035       C  0.66531667  0.99954426  0.35021841     0.88600
C1036       C  0.62257210  0.94698345  0.30416648     0.88600
C1037       C  0.66334237  0.94708425  0.35328430     0.88600
C1038       C  0.62439221  0.99898609  0.30226503     0.88800
O1039       O  0.97786034  0.59872469  0.62966754    -0.73500
O1040       O  0.01831509  0.63577105  0.59877895    -0.73600
O1041       O  0.02062320  0.60272257  0.63037188    -0.73600
O1042       O  0.97575556  0.63183079  0.59782842    -0.73700
O1043       O  0.97355059  0.65655077  0.62388164    -0.73600
O1044       O  0.01686899  0.62713793  0.65660318    -0.73600
O1045       O  0.01600129  0.65933846  0.62594126    -0.73600
O1046       O  0.97435318  0.62443089  0.65467707    -0.73600
Ni1047     Ni  0.99822292  0.61627157  0.61316820     1.25400
Ni1048     Ni  0.99507993  0.64264772  0.64112833     1.25400
C1049       C  0.97157253  0.60488051  0.64857417     0.88600
C1050       C  0.02156934  0.65479579  0.60648038     0.88600
C1051       C  0.02431979  0.60901003  0.64985936     0.88600
C1052       C  0.96970698  0.65061583  0.60440211     0.88800
O1053       O  0.63733054  0.95357837  0.64924425    -0.73500
O1054       O  0.67194332  0.99424651  0.61820130    -0.73600
O1055       O  0.64395630  0.99537385  0.65280663    -0.73600
O1056       O  0.66547735  0.95216197  0.61459601    -0.73700
O1057       O  0.63904803  0.95957884  0.59112498    -0.73600
O1058       O  0.61505968  0.00077788  0.63207963    -0.73600
O1059       O  0.64405075  0.00177709  0.59666369    -0.73600
O1060       O  0.60978161  0.95886824  0.62660274    -0.73600
Ni1061     Ni  0.65560515  0.97362540  0.63441942     1.25400
Ni1062     Ni  0.62596052  0.98047266  0.61069411     1.25400
C1063       C  0.61718014  0.95164462  0.64464382     0.88600
C1064       C  0.66430626  0.00336125  0.60124760     0.88600
C1065       C  0.62474972  0.00282669  0.65037675     0.88600
C1066       C  0.65716663  0.95036738  0.59573119     0.88800
O1067       O  0.65166828  0.65506957  0.97558405    -0.73500
O1068       O  0.67375342  0.61106268  0.93847663    -0.73600
O1069       O  0.64019895  0.64104156  0.93721202    -0.73600
O1070       O  0.68500391  0.62534297  0.97680180    -0.73700
O1071       O  0.66340866  0.60093795  0.99223487    -0.73600
O1072       O  0.61749714  0.61771677  0.95276196    -0.73600
O1073       O  0.65183921  0.58679870  0.95377800    -0.73600
O1074       O  0.62931277  0.63148838  0.99127082    -0.73600
Ni1075     Ni  0.66336793  0.63389841  0.95645749     1.25400
Ni1076     Ni  0.63965435  0.60829739  0.97304530     1.25400
C1077       C  0.63519432  0.65108597  0.98765420     0.88600
C1078       C  0.66876905  0.59135483  0.94244810     0.88600
C1079       C  0.62080710  0.63437723  0.94067799     0.88600
C1080       C  0.68244072  0.60900489  0.98931842     0.88800
C1081       C  0.04786036  0.25961630  0.55953414    -0.04600
C1082       C  0.06494599  0.27069377  0.57002864    -0.32000
C1083       C  0.06145943  0.29048039  0.58067126     0.37200
C1084       C  0.04106899  0.30045492  0.57966424    -0.04900
C1085       C  0.02490659  0.29097478  0.56673634    -0.31900
C1086       C  0.02789045  0.27049228  0.55727894     0.37100
H1087       H  0.08056513  0.26286757  0.57192802     0.17500
O1088       O  0.07772990  0.29938583  0.59286836    -0.59400
H1089       H  0.00899239  0.29835815  0.56591222     0.17500
O1090       O  0.01053054  0.26067885  0.54769674    -0.59500
H1091       H  0.00148550  0.25526853  0.55986624     0.44500
H1092       H  0.07764494  0.29116758  0.60668656     0.44500
C1093       C  0.10466395  0.15998900  0.51569002    -0.04600
C1094       C  0.08305391  0.15357835  0.51980045    -0.32000
C1095       C  0.06739277  0.16854486  0.52699759     0.37200
C1096       C  0.07299594  0.19040181  0.52987309    -0.04900
C1097       C  0.09424626  0.19697258  0.52511564    -0.31900
C1098       C  0.10999444  0.18210720  0.51824611     0.37100
H1099       H  0.07823149  0.13690373  0.51745330     0.17500
O1100       O  0.04692328  0.16147047  0.53215985    -0.59400
H1101       H  0.09907853  0.21354470  0.52819032     0.17500
O1102       O  0.13084576  0.18928316  0.51513017    -0.59500
H1103       H  0.13060491  0.19731987  0.50121488     0.44500
H1104       H  0.03815236  0.16411313  0.51897108     0.44500
C1105       C  0.02861854  0.24794387  0.39997075    -0.04600
C1106       C  0.03631816  0.26857919  0.40579081    -0.32000
C1107       C  0.03124319  0.28703094  0.39316761     0.37200
C1108       C  0.01894534  0.28484269  0.37396691    -0.04900
C1109       C  0.01098709  0.26419403  0.36871540    -0.31900
C1110       C  0.01547473  0.24613703  0.38145897     0.37100
H1111       H  0.04729882  0.27020352  0.41936740     0.17500
O1112       O  0.03929185  0.30680220  0.39915330    -0.59400
H1113       H  0.00108532  0.26176607  0.35445799     0.17500
O1114       O  0.00799205  0.22629851  0.37486449    -0.59500
H1115       H  0.01714537  0.22221628  0.36225486     0.44500
H1116       H  0.02898852  0.31230631  0.41023139     0.44500
C1117       C  0.06166710  0.18375209  0.43802924    -0.04600
C1118       C  0.08098204  0.19072433  0.44754325    -0.32000
C1119       C  0.09756979  0.17619867  0.45253022     0.37200
C1120       C  0.09506368  0.15376258  0.44858658    -0.04900
C1121       C  0.07485387  0.14640787  0.44106890    -0.31900
C1122       C  0.05836665  0.16124990  0.43550094     0.37100
H1123       H  0.08452148  0.20780848  0.44861973     0.17500
O1124       O  0.11640116  0.18433976  0.46107818    -0.59400
H1125       H  0.07221768  0.12928493  0.43850332     0.17500
O1126       O  0.03997824  0.15376985  0.42554587    -0.59500
H1127       H  0.02835635  0.15490419  0.43665423     0.44500
H1128       H  0.12464611  0.19018789  0.44853490     0.44500
C1129       C  0.95342718  0.25429359  0.57223828    -0.04600
C1130       C  0.96697554  0.25182554  0.59019273    -0.32000
C1131       C  0.97606595  0.26960940  0.60066221     0.37200
C1132       C  0.97155192  0.29097025  0.59358834    -0.04900
C1133       C  0.95899723  0.29348872  0.57464372    -0.31900
C1134       C  0.94974402  0.27532516  0.56415141     0.37100
H1135       H  0.96978113  0.23583788  0.59684999     0.17500
O1136       O  0.98927009  0.26568311  0.61807800    -0.59400
H1137       H  0.95587214  0.30951990  0.56830059     0.17500
O1138       O  0.93651844  0.27835767  0.54658603    -0.59500
H1139       H  0.92181716  0.28076291  0.55272614     0.44500
H1140       H  0.00405873  0.26409769  0.61185757     0.44500
C1141       C  0.91837661  0.18794815  0.54043470    -0.04600
C1142       C  0.89922375  0.19213865  0.52923341    -0.32000
C1143       C  0.88586789  0.17533075  0.52231888     0.37200
C1144       C  0.89174391  0.15346411  0.52590983    -0.04900
C1145       C  0.91190163  0.14911257  0.53561738    -0.31900
C1146       C  0.92498472  0.16623550  0.54329841     0.37100
H1147       H  0.89353504  0.20862673  0.52748184     0.17500
O1148       O  0.86682023  0.18059698  0.51214313    -0.59400
H1149       H  0.91695021  0.13254068  0.53823430     0.17500
O1150       O  0.94335134  0.16156538  0.55488644    -0.59500
H1151       H  0.95560084  0.16474218  0.54491069     0.44500
H1152       H  0.85653554  0.18436928  0.52395899     0.44500
C1153       C  0.94290657  0.26422248  0.41674659    -0.04600
C1154       C  0.94169779  0.28612390  0.42306195    -0.32000
C1155       C  0.94773384  0.30289753  0.40869951     0.37200
C1156       C  0.95488615  0.29783278  0.38761590    -0.04900
C1157       C  0.95764482  0.27592882  0.38213318    -0.31900
C1158       C  0.95180631  0.25935448  0.39632387     0.37100
H1159       H  0.93403016  0.29029285  0.43832618     0.17500
O1160       O  0.94518203  0.32402072  0.41491205    -0.59400
H1161       H  0.96367353  0.27144312  0.36625629     0.17500
O1162       O  0.95228340  0.23846764  0.38889691    -0.59500
H1163       H  0.93854244  0.23647824  0.38080278     0.44500
H1164       H  0.92987160  0.32760211  0.41151550     0.44500
C1165       C  0.89929335  0.20219317  0.44807866    -0.04600
C1166       C  0.87769869  0.20326554  0.45547473    -0.32000
C1167       C  0.86568074  0.18471972  0.46002263     0.37200
C1168       C  0.87547535  0.16412955  0.45884684    -0.04900
C1169       C  0.89746814  0.16295264  0.45235282    -0.31900
C1170       C  0.90927157  0.18175414  0.44675995     0.37100
H1171       H  0.86953138  0.21875597  0.45656299     0.17500
O1172       O  0.84427639  0.18712133  0.46574888    -0.59400
H1173       H  0.90560506  0.14744345  0.45166593     0.17500
O1174       O  0.93001050  0.17979990  0.43894006    -0.59500
H1175       H  0.93929689  0.17863928  0.45199013     0.44500
H1176       H  0.83601396  0.18465805  0.45220135     0.44500
C1177       C  0.05317275  0.54542233  0.28074648    -0.04600
C1178       C  0.05213192  0.53903378  0.30269182    -0.32000
C1179       C  0.04770250  0.55413739  0.31936411     0.37200
C1180       C  0.04477197  0.57620528  0.31432534    -0.04900
C1181       C  0.04494971  0.58224156  0.29233547    -0.31900
C1182       C  0.04882485  0.56725314  0.27579255     0.37100
H1183       H  0.05648500  0.52263411  0.30708195     0.17500
O1184       O  0.04731010  0.54730823  0.34050222    -0.59400
H1185       H  0.04233226  0.59894101  0.28772681     0.17500
O1186       O  0.05141641  0.57475075  0.25499964    -0.59500
H1187       H  0.03703066  0.58053250  0.25072763     0.44500
H1188       H  0.06264915  0.54777240  0.34530743     0.44500
C1189       C  0.08979278  0.50682141  0.21843336    -0.04600
C1190       C  0.08364235  0.51506462  0.19809467    -0.32000
C1191       C  0.09570554  0.51004877  0.17923002     0.37200
C1192       C  0.11442590  0.49687432  0.18064698    -0.04900
C1193       C  0.11996829  0.48835642  0.20101731    -0.31900
C1194       C  0.10775985  0.49283639  0.21951387     0.37100
H1195       H  0.07041703  0.52656395  0.19706439     0.17500
O1196       O  0.08944774  0.51868757  0.15976114    -0.59400
H1197       H  0.13409303  0.47812116  0.20287152     0.17500
O1198       O  0.11490142  0.48522570  0.23914569    -0.59500
H1199       H  0.11207932  0.46943370  0.23889018     0.44500
H1200       H  0.09819662  0.53205663  0.15807325     0.44500
C1201       C  0.02778063  0.38519861  0.25800084    -0.04600
C1202       C  0.03796639  0.39034652  0.27774884    -0.32000
C1203       C  0.03310891  0.37862049  0.29688826     0.37200
C1204       C  0.01843974  0.36108910  0.29615793    -0.04900
C1205       C  0.00772405  0.35687524  0.27653077    -0.31900
C1206       C  0.01216752  0.36861761  0.25781214     0.37100
H1207       H  0.05059252  0.40253464  0.27805296     0.17500
O1208       O  0.04370127  0.38357491  0.31573329    -0.59400
H1209       H  0.99577354  0.34408936  0.27541574     0.17500
O1210       O  0.00185132  0.36299542  0.23894385    -0.59500
H1211       H  0.00835456  0.34901833  0.23444300     0.44500
H1212       H  0.03509676  0.39540787  0.32236879     0.44500
C1213       C  0.09594424  0.43295246  0.16421269    -0.04600
C1214       C  0.07391676  0.43241323  0.15816014    -0.32000
C1215       C  0.05766245  0.42654515  0.17323723     0.37200
C1216       C  0.06305419  0.42236090  0.19503727    -0.04900
C1217       C  0.08473517  0.42439507  0.20134118    -0.31900
C1218       C  0.10108648  0.42907993  0.18627005     0.37100
H1219       H  0.06935622  0.43579529  0.14156360     0.17500
O1220       O  0.03668878  0.42398630  0.16632414    -0.59400
H1221       H  0.08939653  0.42009047  0.21771812     0.17500
O1222       O  0.12222588  0.42877363  0.19322083    -0.59500
H1223       H  0.12362891  0.44112963  0.20333184     0.44500
H1224       H  0.03558134  0.40863186  0.16183010     0.44500
C1225       C  0.98128917  0.59395919  0.29972213    -0.04600
C1226       C  0.96752038  0.57600162  0.30282414    -0.32000
C1227       C  0.96051195  0.56350964  0.28509845     0.37200
C1228       C  0.96768856  0.56853372  0.26400107    -0.04900
C1229       C  0.98234890  0.58557723  0.26112811    -0.31900
C1230       C  0.98893726  0.59834054  0.27850501     0.37100
H1231       H  0.96173284  0.57195381  0.31892013     0.17500
O1232       O  0.94538162  0.54757587  0.28835474    -0.59400
H1233       H  0.98747259  0.59013494  0.24493122     0.17500
O1234       O  0.00291820  0.61512066  0.27436221    -0.59500
H1235       H  0.99355950  0.62730476  0.26969214     0.44500
H1236       H  0.95392884  0.53415546  0.29047714     0.44500
C1237       C  0.90395885  0.52290057  0.16518637    -0.04600
C1238       C  0.89715044  0.52014794  0.18681372    -0.32000
C1239       C  0.91096125  0.52424241  0.20421015     0.37200
C1240       C  0.93216406  0.53178127  0.20048935    -0.04900
C1241       C  0.93966844  0.53307618  0.17889178    -0.31900
C1242       C  0.92582595  0.52833218  0.16128415     0.37100
H1243       H  0.88064687  0.51527879  0.19041694     0.17500
O1244       O  0.90278609  0.52301753  0.22489154    -0.59400
H1245       H  0.95569023  0.53954831  0.17562075     0.17500
O1246       O  0.93344771  0.53035267  0.14048975    -0.59500
H1247       H  0.93133961  0.54580354  0.13671602     0.44500
H1248       H  0.89458922  0.53664523  0.22712348     0.44500
C1249       C  0.94266644  0.41041017  0.28129502    -0.04600
C1250       C  0.94628269  0.38928230  0.27405680    -0.32000
C1251       C  0.95129531  0.37261176  0.28853937     0.37200
C1252       C  0.95391431  0.37688982  0.31096147    -0.04900
C1253       C  0.95172458  0.39844782  0.31801643    -0.31900
C1254       C  0.94571449  0.41499403  0.30347038     0.37100
H1255       H  0.94304029  0.38517382  0.25730642     0.17500
O1256       O  0.95335155  0.35208062  0.28040918    -0.59400
H1257       H  0.95401143  0.40238843  0.33495389     0.17500
O1258       O  0.94127655  0.43524438  0.31135886    -0.59500
H1259       H  0.95438107  0.44396077  0.30801311     0.44500
H1260       H  0.93841393  0.34609046  0.28036697     0.44500
C1261       C  0.90592679  0.44984494  0.22041109    -0.04600
C1262       C  0.91358372  0.44265461  0.20017242    -0.32000
C1263       C  0.90314389  0.44899002  0.18080552     0.37200
C1264       C  0.88428533  0.46206540  0.18161707    -0.04900
C1265       C  0.87751781  0.46989630  0.20194321    -0.31900
C1266       C  0.88825470  0.46423295  0.22097713     0.37100
H1267       H  0.92695382  0.43129871  0.19943428     0.17500
O1268       O  0.91109621  0.44172133  0.16136104    -0.59400
H1269       H  0.86374798  0.48070053  0.20330324     0.17500
O1270       O  0.88104569  0.47253194  0.24035172    -0.59500
H1271       H  0.86669534  0.46574331  0.24303169     0.44500
H1272       H  0.92260775  0.45219545  0.15728444     0.44500
C1273       C  0.70222550  0.59790166  0.99802300    -0.04600
C1274       C  0.70084869  0.57704236  0.00730626    -0.32000
C1275       C  0.71968631  0.56541456  0.01323689     0.37200
C1276       C  0.74039028  0.57438748  0.00957169    -0.04900
C1277       C  0.74166205  0.59463840  0.99926719    -0.31900
C1278       C  0.72312720  0.60652183  0.99408905     0.37100
H1279       H  0.68512294  0.56969366  0.01005664     0.17500
O1280       O  0.71757093  0.54603149  0.02379838    -0.59400
H1281       H  0.75736781  0.60199229  0.99629190     0.17500
O1282       O  0.72584337  0.62666725  0.98514390    -0.59500
H1283       H  0.72606773  0.63676397  0.99762274     0.44500
H1284       H  0.71452031  0.53531409  0.01225593     0.44500
C1285       C  0.82889652  0.52271608  0.08230940    -0.04600
C1286       C  0.83646009  0.52552569  0.06094716    -0.32000
C1287       C  0.82195939  0.53067549  0.04401256     0.37200
C1288       C  0.79942688  0.53251054  0.04804986    -0.04900
C1289       C  0.79182684  0.52756281  0.06887934    -0.31900
C1290       C  0.80614945  0.52304711  0.08584932     0.37100
H1291       H  0.85369536  0.52468886  0.05754081     0.17500
O1292       O  0.83018238  0.53597378  0.02402830    -0.59400
H1293       H  0.77482552  0.52973533  0.07277217     0.17500
O1294       O  0.79754904  0.51918637  0.10601498    -0.59500
H1295       H  0.79447668  0.53367582  0.11218835     0.44500
H1296       H  0.82736128  0.52316012  0.01480529     0.44500
C1297       C  0.71620913  0.41496715  0.03195737    -0.04600
C1298       C  0.69451775  0.42112921  0.02821645    -0.32000
C1299       C  0.67915004  0.40626293  0.02010289     0.37200
C1300       C  0.68525779  0.38463935  0.01589138    -0.04900
C1301       C  0.70721370  0.37899873  0.01862159    -0.31900
C1302       C  0.72247315  0.39376646  0.02655003     0.37100
H1303       H  0.68907863  0.43703644  0.03318999     0.17500
O1304       O  0.65810546  0.41285442  0.01727353    -0.59400
H1305       H  0.71269500  0.36272924  0.01510502     0.17500
O1306       O  0.74284829  0.38646547  0.03169405    -0.59500
H1307       H  0.74937264  0.38154568  0.01782660     0.44500
H1308       H  0.65062123  0.40929377  0.03108369     0.44500
C1309       C  0.81088783  0.46066114  0.10382184    -0.04600
C1310       C  0.81368494  0.45128251  0.08315830    -0.32000
C1311       C  0.79562726  0.44534349  0.07041530     0.37200
C1312       C  0.77437900  0.44970309  0.07778504    -0.04900
C1313       C  0.77182101  0.46001200  0.09786983    -0.31900
C1314       C  0.78949008  0.46477594  0.11105617     0.37100
H1315       H  0.82986849  0.44828949  0.07694346     0.17500
O1316       O  0.79898644  0.43452555  0.05135983    -0.59400
H1317       H  0.75567850  0.46318693  0.10415582     0.17500
O1318       O  0.78544215  0.47261422  0.13148906    -0.59500
H1319       H  0.78037023  0.48768962  0.12942192     0.44500
H1320       H  0.80131607  0.41922851  0.05561436     0.44500
C1321       C  0.71653792  0.54232233  0.92668950    -0.04600
C1322       C  0.72280071  0.56323335  0.93261412    -0.32000
C1323       C  0.70735619  0.57911481  0.93736928     0.37200
C1324       C  0.68489477  0.57422994  0.93687077    -0.04900
C1325       C  0.67866270  0.55270936  0.93310154    -0.31900
C1326       C  0.69426585  0.53696666  0.92751224     0.37100
H1327       H  0.73963635  0.56805971  0.93119362     0.17500
O1328       O  0.71452627  0.59951376  0.94236211    -0.59400
H1329       H  0.66163776  0.54834782  0.93334025     0.17500
O1330       O  0.68750651  0.51677651  0.92130519    -0.59500
H1331       H  0.68370226  0.51818673  0.90575961     0.44500
H1332       H  0.71797602  0.60640232  0.92823808     0.44500
C1333       C  0.77785039  0.50485415  0.88767176    -0.04600
C1334       C  0.79810778  0.51138410  0.89568912    -0.32000
C1335       C  0.81745261  0.50547737  0.88491058     0.37200
C1336       C  0.81664162  0.49304103  0.86568233    -0.04900
C1337       C  0.79629011  0.48570222  0.85853729    -0.31900
C1338       C  0.77719159  0.49133304  0.86932487     0.37100
H1339       H  0.79888342  0.52203217  0.90959681     0.17500
O1340       O  0.83693730  0.51213283  0.89322163    -0.59400
H1341       H  0.79497860  0.47535516  0.84444669     0.17500
O1342       O  0.75772317  0.48372230  0.86165172    -0.59500
H1343       H  0.75553891  0.49090106  0.84744040     0.44500
H1344       H  0.83965162  0.52649934  0.88659272     0.44500
C1345       C  0.73898016  0.38838944  0.94437334    -0.04600
C1346       C  0.73302274  0.37026997  0.93176953    -0.32000
C1347       C  0.71228901  0.36108479  0.93325396     0.37200
C1348       C  0.69644308  0.37065194  0.94646156    -0.04900
C1349       C  0.70133669  0.39030260  0.95681632    -0.31900
C1350       C  0.72247075  0.39896977  0.95624068     0.37100
H1351       H  0.74501175  0.36211563  0.92182862     0.17500
O1352       O  0.70800336  0.34206112  0.92267176    -0.59400
H1353       H  0.68941605  0.39770602  0.96742668     0.17500
O1354       O  0.72690525  0.41666295  0.96872326    -0.59500
H1355       H  0.72854560  0.41098968  0.98366433     0.44500
H1356       H  0.71476790  0.33058779  0.93164249     0.44500
C1357       C  0.83644914  0.42856508  0.88651632    -0.04600
C1358       C  0.84470350  0.42500665  0.90744463    -0.32000
C1359       C  0.83084562  0.41953226  0.92480026     0.37200
C1360       C  0.80819324  0.41814092  0.92168166    -0.04900
C1361       C  0.79988868  0.42240413  0.90100954    -0.31900
C1362       C  0.81365985  0.42748543  0.88358716     0.37100
H1363       H  0.86199849  0.42617673  0.91031004     0.17500
O1364       O  0.83971111  0.41466026  0.94456629    -0.59400
H1365       H  0.78269921  0.42055932  0.89798024     0.17500
O1366       O  0.80447796  0.43196548  0.86386471    -0.59500
H1367       H  0.80255978  0.41771052  0.85677429     0.44500
H1368       H  0.83667674  0.42742119  0.95382252     0.44500
C1369       C  0.04913482  0.56475614  0.69826683    -0.04600
C1370       C  0.05290032  0.56064082  0.67615099    -0.32000
C1371       C  0.04566289  0.57509854  0.66005636     0.37200
C1372       C  0.03465839  0.59424428  0.66596847    -0.04900
C1373       C  0.03110349  0.59826259  0.68816595    -0.31900
C1374       C  0.03822247  0.58382875  0.70415257     0.37100
H1375       H  0.06231961  0.54661270  0.67141192     0.17500
O1376       O  0.04988855  0.57056167  0.63871071    -0.59400
H1377       H  0.02270325  0.61276338  0.69334450     0.17500
O1378       O  0.03649672  0.58956989  0.72558000    -0.59500
H1379       H  0.02078238  0.59166937  0.72836318     0.44500
H1380       H  0.06446056  0.57677875  0.63582654     0.44500
C1381       C  0.07163686  0.53881074  0.77078329    -0.04600
C1382       C  0.08018429  0.55543232  0.78394627    -0.32000
C1383       C  0.08998516  0.55083003  0.80394299     0.37200
C1384       C  0.08996781  0.52958487  0.81197321    -0.04900
C1385       C  0.07818848  0.51373951  0.80058455    -0.31900
C1386       C  0.06952366  0.51803785  0.77992522     0.37100
H1387       H  0.08174850  0.57166284  0.77747071     0.17500
O1388       O  0.10103157  0.56682389  0.81465432    -0.59400
H1389       H  0.07820288  0.49717949  0.80633867     0.17500
O1390       O  0.06181830  0.50115765  0.76788078    -0.59500
H1391       H  0.04687431  0.49859069  0.77333872     0.44500
H1392       H  0.11522717  0.56802681  0.80710983     0.44500
C1393       C  0.05279916  0.40941096  0.68885602    -0.04600
C1394       C  0.05514950  0.41513545  0.66679104    -0.32000
C1395       C  0.04922593  0.40067889  0.65004053     0.37200
C1396       C  0.04131882  0.37991856  0.65525522    -0.04900
C1397       C  0.03809678  0.37483018  0.67727591    -0.31900
C1398       C  0.04370319  0.38916154  0.69382942     0.37100
H1399       H  0.06306519  0.43021316  0.66255936     0.17500
O1400       O  0.05227710  0.40659920  0.62883353    -0.59400
H1401       H  0.03151684  0.35924489  0.68193873     0.17500
O1402       O  0.04298768  0.38199568  0.71487134    -0.59500
H1403       H  0.02754247  0.37842756  0.71779220     0.44500
H1404       H  0.06714577  0.40164973  0.62511734     0.44500
C1405       C  0.08752398  0.44781830  0.75235041    -0.04600
C1406       C  0.08145988  0.44104883  0.77325939    -0.32000
C1407       C  0.09236947  0.44884723  0.79175898     0.37200
C1408       C  0.10964542  0.46380940  0.78956869    -0.04900
C1409       C  0.11490966  0.47117332  0.76862001    -0.31900
C1410       C  0.10433878  0.46314069  0.75027793     0.37100
H1411       H  0.06920801  0.42861491  0.77517055     0.17500
O1412       O  0.08632881  0.44126141  0.81177397    -0.59400
H1413       H  0.12770202  0.48296402  0.76624133     0.17500
O1414       O  0.11131469  0.46965711  0.73016542    -0.59500
H1415       H  0.12449068  0.46094801  0.72710975     0.44500
H1416       H  0.09626478  0.42899842  0.81474800     0.44500
C1417       C  0.95237462  0.56113810  0.69989706    -0.04600
C1418       C  0.94826506  0.55535718  0.67820398    -0.32000
C1419       C  0.95426602  0.56918063  0.66095577     0.37200
C1420       C  0.96429139  0.58917950  0.66539919    -0.04900
C1421       C  0.96917309  0.59424582  0.68706046    -0.31900
C1422       C  0.96318405  0.58066972  0.70409438     0.37100
H1423       H  0.93895507  0.54090735  0.67474996     0.17500
O1424       O  0.94924912  0.56349938  0.64009856    -0.59400
H1425       H  0.97729805  0.60925487  0.69106741     0.17500
O1426       O  0.96547831  0.58794315  0.72497245    -0.59500
H1427       H  0.98132528  0.58942579  0.72728750     0.44500
H1428       H  0.93506707  0.57048206  0.63715045     0.44500
C1429       C  0.91873024  0.51852067  0.76068887    -0.04600
C1430       C  0.90207199  0.50401002  0.75564560    -0.32000
C1431       C  0.89011001  0.49373307  0.77189854     0.37200
C1432       C  0.89411755  0.49844662  0.79394817    -0.04900
C1433       C  0.91145414  0.51242865  0.79900656    -0.31900
C1434       C  0.92363276  0.52247484  0.78255416     0.37100
H1435       H  0.89725752  0.50167638  0.73895439     0.17500
O1436       O  0.87403394  0.47966118  0.76585615    -0.59400
H1437       H  0.91540170  0.51587659  0.81574085     0.17500
O1438       O  0.93950925  0.53703727  0.78796771    -0.59500
H1439       H  0.93194712  0.55112503  0.78942345     0.44500
H1440       H  0.88135299  0.46545436  0.76426440     0.44500
C1441       C  0.95838904  0.40207287  0.69503988    -0.04600
C1442       C  0.95606134  0.40671192  0.67288592    -0.32000
C1443       C  0.96349062  0.39223817  0.65690567     0.37200
C1444       C  0.97312967  0.37233665  0.66289142    -0.04900
C1445       C  0.97580984  0.36801626  0.68514679    -0.31900
C1446       C  0.96832746  0.38245371  0.70102827     0.37100
H1447       H  0.94749460  0.42119715  0.66794721     0.17500
O1448       O  0.96048544  0.39744615  0.63552030    -0.59400
H1449       H  0.98344585  0.35314230  0.69040744     0.17500
O1450       O  0.96937799  0.37645129  0.72239914    -0.59500
H1451       H  0.95566572  0.36854295  0.72531684     0.44500
H1452       H  0.97295270  0.40685471  0.63165013     0.44500
C1453       C  0.93213541  0.42331264  0.76739003    -0.04600
C1454       C  0.93556787  0.44317857  0.77777549    -0.32000
C1455       C  0.92752460  0.44672293  0.79891441     0.37200
C1456       C  0.91472155  0.43079601  0.80938522    -0.04900
C1457       C  0.91373910  0.41018396  0.80011834    -0.31900
C1458       C  0.92282062  0.40621768  0.77959552     0.37100
H1459       H  0.94280644  0.45652944  0.76900135     0.17500
O1460       O  0.92987609  0.46677480  0.80799946    -0.59400
H1461       H  0.90435219  0.39757914  0.80797758     0.17500
O1462       O  0.92128560  0.38583709  0.77087325    -0.59500
H1463       H  0.90556282  0.38313445  0.76873654     0.44500
H1464       H  0.94395455  0.46623576  0.81570579     0.44500
C1465       C  0.29012901  0.54040088  0.03825373    -0.04600
C1466       C  0.31146445  0.53339988  0.03393153    -0.32000
C1467       C  0.32780336  0.54820885  0.02773296     0.37200
C1468       C  0.32306161  0.57051104  0.02650784    -0.04900
C1469       C  0.30147304  0.57712684  0.02997012    -0.31900
C1470       C  0.28516443  0.56240733  0.03542754     0.37100
H1471       H  0.31581233  0.51667367  0.03684533     0.17500
O1472       O  0.34839729  0.54079485  0.02373566    -0.59400
H1473       H  0.29701144  0.59401749  0.02863737     0.17500
O1474       O  0.26498880  0.57013826  0.04090043    -0.59500
H1475       H  0.25914006  0.57673976  0.02747364     0.44500
H1476       H  0.35575064  0.54095455  0.03800594     0.44500
C1477       C  0.22810135  0.50565308  0.07807590    -0.04600
C1478       C  0.20801769  0.51511783  0.07281864    -0.32000
C1479       C  0.18917484  0.51039081  0.08511051     0.37200
C1480       C  0.19041305  0.49626243  0.10310084    -0.04900
C1481       C  0.21045137  0.48637667  0.10757680    -0.31900
C1482       C  0.22894271  0.49084110  0.09537020     0.37100
H1483       H  0.20720817  0.52713622  0.06005875     0.17500
O1484       O  0.16992254  0.52009466  0.07975778    -0.59400
H1485       H  0.21205347  0.47501200  0.12083470     0.17500
O1486       O  0.24819682  0.48124398  0.10108987    -0.59500
H1487       H  0.25269197  0.48834684  0.11476914     0.44500
H1488       H  0.16976847  0.53390379  0.08791947     0.44500
C1489       C  0.26354894  0.38556039  0.01338881    -0.04600
C1490       C  0.28298263  0.39172852  0.02372411    -0.32000
C1491       C  0.30285235  0.38117621  0.01880964     0.37200
C1492       C  0.30319179  0.36369412  0.00403195    -0.04900
C1493       C  0.28364694  0.35805245  0.99380003    -0.31900
C1494       C  0.26442133  0.36916892  0.99769741     0.37100
H1495       H  0.28258316  0.40395475  0.03627705     0.17500
O1496       O  0.32150643  0.38761615  0.02898408    -0.59400
H1497       H  0.28309365  0.34491204  0.98225934     0.17500
O1498       O  0.24601872  0.36288467  0.98693865    -0.59500
H1499       H  0.24743856  0.36916076  0.97219900     0.44500
H1500       H  0.32254275  0.37835631  0.04207483     0.44500
C1501       C  0.17194490  0.43206979  0.08450317    -0.04600
C1502       C  0.16506246  0.43316479  0.06275474    -0.32000
C1503       C  0.17902594  0.42715443  0.04558611     0.37200
C1504       C  0.20061925  0.42092372  0.04978552    -0.04900
C1505       C  0.20776278  0.42086559  0.07131329    -0.31900
C1506       C  0.19376940  0.42601346  0.08849543     0.37100
H1507       H  0.14866879  0.43823917  0.05903149     0.17500
O1508       O  0.17125130  0.42682645  0.02479394    -0.59400
H1509       H  0.22392642  0.41503978  0.07502902     0.17500
O1510       O  0.20156083  0.42429456  0.10923066    -0.59500
H1511       H  0.21129116  0.43690594  0.11117342     0.44500
H1512       H  0.16344284  0.41286823  0.02344547     0.44500
C1513       C  0.26457251  0.56875969  0.95466763    -0.04600
C1514       C  0.26453616  0.58537508  0.96999817    -0.32000
C1515       C  0.28328764  0.59693584  0.97475291     0.37200
C1516       C  0.30330562  0.59157734  0.96471650    -0.04900
C1517       C  0.30371820  0.57387606  0.95032273    -0.31900
C1518       C  0.28445153  0.56266779  0.94506284     0.37100
H1519       H  0.24937786  0.59047446  0.97736979     0.17500
O1520       O  0.28165314  0.61346965  0.98947671    -0.59400
H1521       H  0.31884805  0.56903986  0.94276705     0.17500
O1522       O  0.28500832  0.54689213  0.92949873    -0.59500
H1523       H  0.28889387  0.53345174  0.93736605     0.44500
H1524       H  0.27687685  0.62621586  0.98095501     0.44500
C1525       C  0.19964033  0.53310227  0.92145064    -0.04600
C1526       C  0.20665673  0.52827826  0.90042926    -0.32000
C1527       C  0.19189104  0.52356452  0.88393697     0.37200
C1528       C  0.16926454  0.52313385  0.88813201    -0.04900
C1529       C  0.16226183  0.52618160  0.90965663    -0.31900
C1530       C  0.17721312  0.53152716  0.92612432     0.37100
H1531       H  0.22353581  0.53045835  0.89606237     0.17500
O1532       O  0.19993549  0.51956934  0.86358591    -0.59400
H1533       H  0.14512093  0.52539139  0.91352655     0.17500
O1534       O  0.16956100  0.53698183  0.94628551    -0.59500
H1535       H  0.17290773  0.52436702  0.95563373     0.44500
H1536       H  0.20261019  0.53401766  0.85711372     0.44500
C1537       C  0.28383313  0.41323006  0.92835148    -0.04600
C1538       C  0.27809870  0.39228222  0.93463268    -0.32000
C1539       C  0.29392526  0.37677684  0.93916744     0.37200
C1540       C  0.31624193  0.38236509  0.93927730    -0.04900
C1541       C  0.32193243  0.40394598  0.93479089    -0.31900
C1542       C  0.30597960  0.41909316  0.92862234     0.37100
H1543       H  0.26134105  0.38709401  0.93342737     0.17500
O1544       O  0.28722359  0.35598156  0.94302390    -0.59400
H1545       H  0.33881924  0.40880672  0.93501358     0.17500
O1546       O  0.31226096  0.43917905  0.92153017    -0.59500
H1547       H  0.31588500  0.43729059  0.90596727     0.44500
H1548       H  0.28507689  0.34949944  0.92848973     0.44500
C1549       C  0.22188986  0.44952315  0.88958070    -0.04600
C1550       C  0.22449553  0.46287496  0.87136753    -0.32000
C1551       C  0.20699109  0.46840498  0.85822598     0.37200
C1552       C  0.18572957  0.46165176  0.86370077    -0.04900
C1553       C  0.18290823  0.44914126  0.88266592    -0.31900
C1554       C  0.20082294  0.44285065  0.89537596     0.37100
H1555       H  0.24065211  0.46765700  0.86624265     0.17500
O1556       O  0.21108523  0.48045770  0.83998459    -0.59400
H1557       H  0.16681785  0.44397120  0.88753336     0.17500
O1558       O  0.19772237  0.42895849  0.91242522    -0.59500
H1559       H  0.19593655  0.43840401  0.92528394     0.44500
H1560       H  0.21331205  0.46975015  0.82822879     0.44500
C1561       C  0.60772182  0.30785760  0.01606768    -0.04600
C1562       C  0.58638379  0.31510025  0.01996712    -0.32000
C1563       C  0.56979834  0.30050174  0.02591973     0.37200
C1564       C  0.57408407  0.27814221  0.02733143    -0.04900
C1565       C  0.59505718  0.27081588  0.02253755    -0.31900
C1566       C  0.61171399  0.28528470  0.01704013     0.37100
H1567       H  0.58258587  0.33215541  0.01869865     0.17500
O1568       O  0.54945974  0.30825096  0.03057373    -0.59400
H1569       H  0.59892560  0.25381129  0.02432075     0.17500
O1570       O  0.63193762  0.27702323  0.01277809    -0.59500
H1571       H  0.63133496  0.27202852  0.99752795     0.44500
H1572       H  0.54977636  0.31193463  0.04620585     0.44500
C1573       C  0.54817690  0.16463061  0.07129369    -0.04600
C1574       C  0.56610760  0.17695538  0.07760760    -0.32000
C1575       C  0.56939022  0.19782103  0.06920220     0.37200
C1576       C  0.55392686  0.20724438  0.05509184    -0.04900
C1577       C  0.53741301  0.19398403  0.04687686    -0.31900
C1578       C  0.53490032  0.17261290  0.05444466     0.37100
H1579       H  0.57673203  0.17103837  0.09025474     0.17500
O1580       O  0.58734889  0.20934185  0.07554329    -0.59400
H1581       H  0.52546629  0.20052130  0.03587228     0.17500
O1582       O  0.51774162  0.16061769  0.04715287    -0.59500
H1583       H  0.52376081  0.15161004  0.03528038     0.44500
H1584       H  0.58561307  0.21177869  0.09134641     0.44500
C1585       C  0.41436821  0.25816405  0.01054025    -0.04600
C1586       C  0.41978275  0.27927523  0.01706730    -0.32000
C1587       C  0.40594579  0.29689941  0.01240634     0.37200
C1588       C  0.38617207  0.29347125  0.00132499    -0.04900
C1589       C  0.38133665  0.27234254  0.99441782    -0.31900
C1590       C  0.39511778  0.25501599  0.99877234     0.37100
H1591       H  0.43401163  0.28188794  0.02699532     0.17500
O1592       O  0.41168784  0.31718347  0.01924916    -0.59400
H1593       H  0.36654886  0.26894819  0.98562276     0.17500
O1594       O  0.38891681  0.23461245  0.99257949    -0.59500
H1595       H  0.37739373  0.23024291  0.00296656     0.44500
H1596       H  0.40420811  0.31910186  0.03337776     0.44500
C1597       C  0.45891352  0.19871354  0.04417769    -0.04600
C1598       C  0.46782352  0.20477153  0.06409366    -0.32000
C1599       C  0.47646401  0.18948503  0.07828551     0.37200
C1600       C  0.47591583  0.16719712  0.07306470    -0.04900
C1601       C  0.46818185  0.16119880  0.05245368    -0.31900
C1602       C  0.45965223  0.17676887  0.03813612     0.37100
H1603       H  0.46634324  0.22129796  0.06967040     0.17500
O1604       O  0.48465413  0.19664539  0.09763539    -0.59400
H1605       H  0.46834272  0.14438371  0.04756243     0.17500
O1606       O  0.45100375  0.17027220  0.01875189    -0.59500
H1607       H  0.43603461  0.16545909  0.02221070     0.44500
H1608       H  0.49962879  0.20154758  0.09427838     0.44500
C1609       C  0.59440534  0.25968861  0.93440270    -0.04600
C1610       C  0.61495351  0.25641125  0.94349043    -0.32000
C1611       C  0.62817817  0.27367092  0.94942018     0.37200
C1612       C  0.62066208  0.29523050  0.94758581    -0.04900
C1613       C  0.59943214  0.29855945  0.93964458    -0.31900
C1614       C  0.58644385  0.28097945  0.93284510     0.37100
H1615       H  0.62155379  0.24018491  0.94451125     0.17500
O1616       O  0.64862440  0.26903203  0.95683593    -0.59400
H1617       H  0.59297376  0.31480138  0.93843536     0.17500
O1618       O  0.56670782  0.28489806  0.92345416    -0.59500
H1619       H  0.55618105  0.28505608  0.93564927     0.44500
H1620       H  0.65793018  0.26857655  0.94369267     0.44500
C1621       C  0.55062604  0.20057135  0.89854025    -0.04600
C1622       C  0.54961786  0.17903275  0.90598264    -0.32000
C1623       C  0.54162528  0.16231312  0.89258633     0.37200
C1624       C  0.53501893  0.16697603  0.87120123    -0.04900
C1625       C  0.53492606  0.18872235  0.86446395    -0.31900
C1626       C  0.54262126  0.20524699  0.87774682     0.37100
H1627       H  0.55655242  0.17492101  0.92156248     0.17500
O1628       O  0.54132603  0.14148634  0.90021579    -0.59400
H1629       H  0.52934903  0.19307544  0.84841383     0.17500
O1630       O  0.54423074  0.22575575  0.86938192    -0.59500
H1631       H  0.55776632  0.22582536  0.86063074     0.44500
H1632       H  0.55528476  0.13507448  0.89539906     0.44500
C1633       C  0.43281328  0.28136658  0.92382834    -0.04600
C1634       C  0.41321406  0.27337461  0.93201918    -0.32000
C1635       C  0.39637716  0.28730394  0.93798874     0.37200
C1636       C  0.39907816  0.31004943  0.93691448    -0.04900
C1637       C  0.41947088  0.31815655  0.93062092    -0.31900
C1638       C  0.43606984  0.30400265  0.92365884     0.37100
H1639       H  0.40985829  0.25620505  0.93136528     0.17500
O1640       O  0.37711310  0.27830996  0.94461616    -0.59400
H1641       H  0.42219277  0.33545374  0.93009415     0.17500
O1642       O  0.45469265  0.31248389  0.91489068    -0.59500
H1643       H  0.46545488  0.31211823  0.92679536     0.44500
H1644       H  0.36938143  0.27444332  0.93108741     0.44500
C1645       C  0.46432892  0.21787361  0.88420613    -0.04600
C1646       C  0.45537272  0.19816346  0.89139439    -0.32000
C1647       C  0.45852902  0.17887306  0.87943059     0.37200
C1648       C  0.47027589  0.17933909  0.85969639    -0.04900
C1649       C  0.47980152  0.19904323  0.85331252    -0.31900
C1650       C  0.47729633  0.21784453  0.86544161     0.37100
H1651       H  0.44485908  0.19796538  0.90550245     0.17500
O1652       O  0.44962444  0.15993834  0.88686016    -0.59400
H1653       H  0.48955912  0.20008253  0.83871407     0.17500
O1654       O  0.48607138  0.23674897  0.85770332    -0.59500
H1655       H  0.50178812  0.23580669  0.86095756     0.44500
H1656       H  0.43426276  0.16032166  0.88212291     0.44500
C1657       C  0.58943857  0.01901234  0.70923054    -0.04600
C1658       C  0.61081854  0.01124745  0.70958401    -0.32000
C1659       C  0.62279671  0.00829547  0.69070587     0.37200
C1660       C  0.61296339  0.01066376  0.67016075    -0.04900
C1661       C  0.59086137  0.01681652  0.66959075    -0.31900
C1662       C  0.57928248  0.02152435  0.68891509     0.37100
H1663       H  0.61903228  0.00883354  0.72490624     0.17500
O1664       O  0.64423547  0.00270500  0.69282014    -0.59400
H1665       H  0.58260714  0.01821274  0.65418675     0.17500
O1666       O  0.55842085  0.02904632  0.68764468    -0.59500
H1667       H  0.55981242  0.04498197  0.68649528     0.44500
H1668       H  0.65223257  0.01662853  0.69307679     0.44500
C1669       C  0.54696992  0.05139313  0.77104524    -0.04600
C1670       C  0.53953824  0.07105372  0.76266439    -0.32000
C1671       C  0.53321037  0.08793910  0.77632527     0.37200
C1672       C  0.53345256  0.08530266  0.79914569    -0.04900
C1673       C  0.53916478  0.06494932  0.80755008    -0.31900
C1674       C  0.54624025  0.04823235  0.79371056     0.37100
H1675       H  0.54102399  0.07435297  0.74549258     0.17500
O1676       O  0.52705275  0.10712041  0.76700545    -0.59400
H1677       H  0.53904900  0.06227621  0.82490165     0.17500
O1678       O  0.55435380  0.02958224  0.80257412    -0.59500
H1679       H  0.54157294  0.02004084  0.80460634     0.44500
H1680       H  0.54078901  0.11488863  0.76383160     0.44500
C1681       C  0.39465081  0.01028072  0.66036511    -0.04600
C1682       C  0.41681892  0.01325750  0.65525277    -0.32000
C1683       C  0.43175274  0.02040845  0.67098214     0.37200
C1684       C  0.42496119  0.02400440  0.69248468    -0.04900
C1685       C  0.40333657  0.01926130  0.69795221    -0.31900
C1686       C  0.38821870  0.01303117  0.68222629     0.37100
H1687       H  0.42255984  0.01060143  0.63886183     0.17500
O1688       O  0.45269933  0.02498196  0.66492895    -0.59400
H1689       H  0.39749875  0.02273704  0.71417239     0.17500
O1690       O  0.36703379  0.01021864  0.68849910    -0.59500
H1691       H  0.36037824  0.02479517  0.68754085     0.44500
H1692       H  0.45222564  0.03984314  0.65888256     0.44500
C1693       C  0.46856096  0.09719543  0.78611409    -0.04600
C1694       C  0.47563754  0.10237368  0.76502761    -0.32000
C1695       C  0.47252158  0.08838752  0.74762994     0.37200
C1696       C  0.46107919  0.06888790  0.75041909    -0.04900
C1697       C  0.45446433  0.06305925  0.77150610    -0.31900
C1698       C  0.45843974  0.07689167  0.78935670     0.37100
H1699       H  0.48392866  0.11747515  0.76174859     0.17500
O1700       O  0.47891222  0.09496246  0.72732995    -0.59400
H1701       H  0.44504129  0.04845931  0.77393799     0.17500
O1702       O  0.45195608  0.07059333  0.80967608    -0.59500
H1703       H  0.43649700  0.07494469  0.81076691     0.44500
H1704       H  0.49494766  0.09350309  0.72718112     0.44500
C1705       C  0.57375212  0.93064849  0.69581133    -0.04600
C1706       C  0.59297252  0.94171943  0.70042979    -0.32000
C1707       C  0.60717720  0.94802415  0.68393960     0.37200
C1708       C  0.60210921  0.94397790  0.66195781    -0.04900
C1709       C  0.58194006  0.93451617  0.65714004    -0.31900
C1710       C  0.56803116  0.92744278  0.67390540     0.37100
H1711       H  0.59823692  0.94348131  0.71705821     0.17500
O1712       O  0.62621041  0.95796389  0.68966397    -0.59400
H1713       H  0.57745784  0.93162779  0.64043361     0.17500
O1714       O  0.55001453  0.91550939  0.66875312    -0.59500
H1715       H  0.53748274  0.92511241  0.67183308     0.44500
H1716       H  0.63624884  0.94605553  0.69357983     0.44500
C1717       C  0.53794241  0.89093169  0.75785340    -0.04600
C1718       C  0.52626001  0.87216614  0.75286817    -0.32000
C1719       C  0.52085833  0.85699684  0.76877032     0.37200
C1720       C  0.52571618  0.86087688  0.79083977    -0.04900
C1721       C  0.53633799  0.88040914  0.79609141    -0.31900
C1722       C  0.54283388  0.89510065  0.77975958     0.37100
H1723       H  0.52331831  0.86803005  0.73606555     0.17500
O1724       O  0.51121038  0.83812174  0.76224006    -0.59400
H1725       H  0.54009895  0.88408098  0.81282001     0.17500
O1726       O  0.55545510  0.91252548  0.78518250    -0.59500
H1727       H  0.54521219  0.92483417  0.78642476     0.44500
H1728       H  0.52337387  0.82805196  0.75920656     0.44500
C1729       C  0.41372221  0.93814327  0.70579286    -0.04600
C1730       C  0.42132059  0.92922927  0.68613189    -0.32000
C1731       C  0.40997689  0.93274138  0.66645817     0.37200
C1732       C  0.39051787  0.94479384  0.66652084    -0.04900
C1733       C  0.38389690  0.95448360  0.68606126    -0.31900
C1734       C  0.39527600  0.95151271  0.70526815     0.37100
H1735       H  0.43515651  0.91842309  0.68626360     0.17500
O1736       O  0.41746154  0.92357140  0.64765241    -0.59400
H1737       H  0.36948263  0.96450270  0.68666566     0.17500
O1738       O  0.38692498  0.96009168  0.72403826    -0.59500
H1739       H  0.38939117  0.97590616  0.72291313     0.44500
H1740       H  0.41191283  0.90851530  0.64788225     0.44500
C1741       C  0.45017467  0.90850529  0.77226364    -0.04600
C1742       C  0.45835252  0.88856264  0.76549466    -0.32000
C1743       C  0.46324881  0.87230491  0.78041911     0.37200
C1744       C  0.46140260  0.87600968  0.80303503    -0.04900
C1745       C  0.45543870  0.89685360  0.80997214    -0.31900
C1746       C  0.44929082  0.91283403  0.79476614     0.37100
H1747       H  0.45829457  0.88444943  0.74844141     0.17500
O1748       O  0.46932682  0.85250115  0.77249138    -0.59400
H1749       H  0.45432099  0.90035599  0.82713289     0.17500
O1750       O  0.44053008  0.93186919  0.80208166    -0.59500
H1751       H  0.45196790  0.94290537  0.79965205     0.44500
H1752       H  0.45558582  0.84515499  0.76854320     0.44500
C1753       C  0.59523194  0.70624061  0.00427143    -0.04600
C1754       C  0.58849605  0.68543702  0.01045231    -0.32000
C1755       C  0.60136900  0.66719578  0.00561854     0.37200
C1756       C  0.62155016  0.66971312  0.99483168    -0.04900
C1757       C  0.62746725  0.69052637  0.98777489    -0.31900
C1758       C  0.61459141  0.70851070  0.99230591     0.37100
H1759       H  0.57396577  0.68346802  0.02019999     0.17500
O1760       O  0.59434848  0.64717469  0.01212619    -0.59400
H1761       H  0.64234723  0.69310751  0.97873576     0.17500
O1762       O  0.62157339  0.72861051  0.98581954    -0.59500
H1763       H  0.63423835  0.73202628  0.99509567     0.44500
H1764       H  0.58535092  0.64176094  0.99997361     0.44500
C1765       C  0.53765476  0.79537196  0.07298600    -0.04600
C1766       C  0.53996318  0.77367992  0.07947672    -0.32000
C1767       C  0.54660961  0.75767478  0.06491618     0.37200
C1768       C  0.55133679  0.76292895  0.04319013    -0.04900
C1769       C  0.54786452  0.78430321  0.03623788    -0.31900
C1770       C  0.54086161  0.80040611  0.05083537     0.37100
H1771       H  0.53697258  0.76896978  0.09613195     0.17500
O1772       O  0.55038154  0.73718415  0.07259116    -0.59400
H1773       H  0.55220664  0.78889834  0.01983578     0.17500
O1774       O  0.53779322  0.82105011  0.04332102    -0.59500
H1775       H  0.55191720  0.82843610  0.04542782     0.44500
H1776       H  0.56477032  0.73783848  0.07972146     0.44500
C1777       C  0.43648623  0.67746036  0.03012227    -0.04600
C1778       C  0.44225118  0.65563498  0.02679346    -0.32000
C1779       C  0.42630919  0.63976032  0.02260180     0.37200
C1780       C  0.40413708  0.64548289  0.02261384    -0.04900
C1781       C  0.39872301  0.66744293  0.02524284    -0.31900
C1782       C  0.41451823  0.68327880  0.02844331     0.37100
H1783       H  0.45898073  0.65067419  0.02885433     0.17500
O1784       O  0.43254989  0.61872337  0.01938568    -0.59400
H1785       H  0.38193708  0.67261536  0.02496229     0.17500
O1786       O  0.40802875  0.70402461  0.03300710    -0.59500
H1787       H  0.40085095  0.70932630  0.01965229     0.44500
H1788       H  0.43089869  0.61161863  0.03371461     0.44500
C1789       C  0.47447065  0.78363493  0.08490986    -0.04600
C1790       C  0.48552412  0.76491061  0.09169675    -0.32000
C1791       C  0.48305511  0.74521992  0.08116078     0.37200
C1792       C  0.46870605  0.74334694  0.06364760    -0.04900
C1793       C  0.45894848  0.76224927  0.05537736    -0.31900
C1794       C  0.46217555  0.78249223  0.06565678     0.37100
H1795       H  0.49636745  0.76534720  0.10547250     0.17500
O1796       O  0.49425332  0.72749267  0.08859456    -0.59400
H1797       H  0.44792810  0.76114796  0.04179291     0.17500
O1798       O  0.45288933  0.80072970  0.05710944    -0.59500
H1799       H  0.43807861  0.80127615  0.06341012     0.44500
H1800       H  0.48811206  0.72420180  0.10311559     0.44500
C1801       C  0.56732432  0.67633552  0.92138313    -0.04600
C1802       C  0.58803226  0.68458922  0.92556469    -0.32000
C1803       C  0.60532233  0.67099947  0.93118431     0.37200
C1804       C  0.60227561  0.64835799  0.93334765    -0.04900
C1805       C  0.58111620  0.64018592  0.93069933    -0.31900
C1806       C  0.56388004  0.65388653  0.92435530     0.37100
H1807       H  0.59144003  0.70148042  0.92242183     0.17500
O1808       O  0.62526413  0.68024081  0.93455719    -0.59400
H1809       H  0.57809677  0.62304736  0.93273786     0.17500
O1810       O  0.54412835  0.64491092  0.91951196    -0.59500
H1811       H  0.53431482  0.64939809  0.93146125     0.44500
H1812       H  0.63183408  0.68172346  0.91992970     0.44500
C1813       C  0.53199126  0.73843026  0.88247499    -0.04600
C1814       C  0.54040007  0.75816963  0.89015340    -0.32000
C1815       C  0.53534985  0.77796370  0.87970677     0.37200
C1816       C  0.52176979  0.77817666  0.86125733    -0.04900
C1817       C  0.51280084  0.75839635  0.85441561    -0.31900
C1818       C  0.51767772  0.73893120  0.86473727     0.37100
H1819       H  0.55179529  0.75813123  0.90347916     0.17500
O1820       O  0.54421905  0.79678982  0.88733259    -0.59400
H1821       H  0.50175254  0.75782092  0.84080967     0.17500
O1822       O  0.50926449  0.72013461  0.85645777    -0.59500
H1823       H  0.49474853  0.71864126  0.86318734     0.44500
H1824       H  0.55739984  0.79918152  0.87836964     0.44500
C1825       C  0.40959965  0.69820192  0.94539894    -0.04600
C1826       C  0.39502629  0.70100031  0.96260003    -0.32000
C1827       C  0.38214660  0.68403607  0.97011090     0.37200
C1828       C  0.38371187  0.66323221  0.96064919    -0.04900
C1829       C  0.39927344  0.66001300  0.94417166    -0.31900
C1830       C  0.41191078  0.67739728  0.93632648     0.37100
H1831       H  0.39216730  0.71698721  0.96915392     0.17500
O1832       O  0.36793254  0.68822135  0.98674911    -0.59400
H1833       H  0.40112869  0.64420415  0.93685519     0.17500
O1834       O  0.42504546  0.67428369  0.91862633    -0.59500
H1835       H  0.43987073  0.67263655  0.92460258     0.44500
H1836       H  0.35499820  0.69472662  0.97978097     0.44500
C1837       C  0.44438335  0.76150189  0.90744658    -0.04600
C1838       C  0.44620168  0.78316512  0.91425645    -0.32000
C1839       C  0.45250639  0.79963606  0.89964017     0.37200
C1840       C  0.45642404  0.79466359  0.87761971    -0.04900
C1841       C  0.45504903  0.77287122  0.87118097    -0.31900
C1842       C  0.44927164  0.75652148  0.88576924     0.37100
H1843       H  0.44147774  0.78750520  0.93061202     0.17500
O1844       O  0.45411956  0.82050698  0.90694125    -0.59400
H1845       H  0.45838084  0.76828656  0.85455857     0.17500
O1846       O  0.44587436  0.73598072  0.87804856    -0.59500
H1847       H  0.46010543  0.73065643  0.87380910     0.44500
H1848       H  0.44013872  0.82742706  0.90306337     0.44500
C1849       C  0.61119292  0.00838441  0.28423916    -0.04600
C1850       C  0.61950518  0.00678529  0.26304731    -0.32000
C1851       C  0.60736651  0.01303896  0.24508118     0.37200
C1852       C  0.58680720  0.02255541  0.24780345    -0.04900
C1853       C  0.57795764  0.02377027  0.26879097    -0.31900
C1854       C  0.58981542  0.01638079  0.28691802     0.37100
H1855       H  0.63570321  0.00064193  0.26014918     0.17500
O1856       O  0.61669319  0.01182447  0.22487865    -0.59400
H1857       H  0.56243226  0.03162645  0.27128074     0.17500
O1858       O  0.58053597  0.01755636  0.30710318    -0.59500
H1859       H  0.58366493  0.03240349  0.31228495     0.44500
H1860       H  0.61668248  0.99621933  0.22115532     0.44500
C1861       C  0.55123706  0.06115310  0.18530325    -0.04600
C1862       C  0.55501912  0.05397433  0.16394842    -0.32000
C1863       C  0.55054812  0.06750079  0.14602276     0.37200
C1864       C  0.54288838  0.08873471  0.14948866    -0.04900
C1865       C  0.53804987  0.09510587  0.17082790    -0.31900
C1866       C  0.54173481  0.08154935  0.18842262     0.37100
H1867       H  0.56301438  0.03859964  0.16125511     0.17500
O1868       O  0.55458596  0.06016962  0.12543708    -0.59400
H1869       H  0.53159284  0.11103920  0.17418955     0.17500
O1870       O  0.53890655  0.08965654  0.20893766    -0.59500
H1871       H  0.52301416  0.09163537  0.21067635     0.44500
H1872       H  0.57038811  0.06227389  0.12315272     0.44500
C1873       C  0.42150016  0.02711876  0.24575318    -0.04600
C1874       C  0.40061098  0.01913613  0.24164515    -0.32000
C1875       C  0.38591699  0.01470337  0.25838920     0.37200
C1876       C  0.39218103  0.01667248  0.28037787    -0.04900
C1877       C  0.41368439  0.02340261  0.28461440    -0.31900
C1878       C  0.42808086  0.02902172  0.26755185     0.37100
H1879       H  0.39482010  0.01837387  0.22508608     0.17500
O1880       O  0.36525013  0.00869492  0.25280453    -0.59400
H1881       H  0.41922718  0.02477990  0.30119046     0.17500
O1882       O  0.44786654  0.03788901  0.27241846    -0.59500
H1883       H  0.45857445  0.02624371  0.26959208     0.44500
H1884       H  0.35707736  0.02244528  0.25138882     0.44500
C1885       C  0.46326817  0.06305539  0.18443113    -0.04600
C1886       C  0.47388352  0.08248934  0.18922015    -0.32000
C1887       C  0.47992463  0.09704871  0.17292996     0.37200
C1888       C  0.47651394  0.09204707  0.15078838    -0.04900
C1889       C  0.46725816  0.07179761  0.14582357    -0.31900
C1890       C  0.46026804  0.05761255  0.16242630     0.37100
H1891       H  0.47541775  0.08759580  0.20593959     0.17500
O1892       O  0.48898057  0.11634105  0.17908803    -0.59400
H1893       H  0.46473342  0.06726204  0.12907203     0.17500
O1894       O  0.44885821  0.03937775  0.15701544    -0.59500
H1895       H  0.45978820  0.02761273  0.15666309     0.44500
H1896       H  0.47652166  0.12584143  0.18274456     0.44500
C1897       C  0.58354095  0.93257109  0.24770687    -0.04600
C1898       C  0.60241264  0.94497952  0.24629841    -0.32000
C1899       C  0.61541597  0.94844507  0.26434047     0.37200
C1900       C  0.60892235  0.94104735  0.28511930    -0.04900
C1901       C  0.58885100  0.93027948  0.28701067    -0.31900
C1902       C  0.57651745  0.92541650  0.26832344     0.37100
H1903       H  0.60842724  0.95007800  0.23056235     0.17500
O1904       O  0.63475244  0.95901532  0.26125212    -0.59400
H1905       H  0.58330246  0.92472825  0.30273340     0.17500
O1906       O  0.55869782  0.91225625  0.27017025    -0.59500
H1907       H  0.54602079  0.92204716  0.26889293     0.44500
H1908       H  0.64498350  0.94782741  0.25589468     0.44500
C1909       C  0.54986311  0.90539726  0.17909026    -0.04600
C1910       C  0.53703275  0.88771400  0.18489016    -0.32000
C1911       C  0.53052469  0.87260995  0.16953554     0.37200
C1912       C  0.53619819  0.87519107  0.14744400    -0.04900
C1913       C  0.54727934  0.89403262  0.14113302    -0.31900
C1914       C  0.55448591  0.90889619  0.15689716     0.37100
H1915       H  0.53429620  0.88392337  0.20177744     0.17500
O1916       O  0.51890995  0.85498637  0.17652314    -0.59400
H1917       H  0.55139792  0.89659509  0.12424579     0.17500
O1918       O  0.56763556  0.92570475  0.15071542    -0.59500
H1919       H  0.55765992  0.93804230  0.14825531     0.44500
H1920       H  0.52976857  0.84499544  0.18286818     0.44500
C1921       C  0.39734657  0.95132828  0.28567918    -0.04600
C1922       C  0.39177825  0.95810213  0.26466287    -0.32000
C1923       C  0.40461735  0.95318899  0.24670805     0.37200
C1924       C  0.42351562  0.94069848  0.24912247    -0.04900
C1925       C  0.43010528  0.93503979  0.27027840    -0.31900
C1926       C  0.41728811  0.94055388  0.28857038     0.37100
H1927       H  0.37684239  0.96689208  0.26187771     0.17500
O1928       O  0.39686739  0.95801910  0.22644662    -0.59400
H1929       H  0.44416324  0.92475246  0.27245764     0.17500
O1930       O  0.42370320  0.93416573  0.30883367    -0.59500
H1931       H  0.41762243  0.91943180  0.31073988     0.44500
H1932       H  0.39775430  0.97398378  0.22520737     0.44500
C1933       C  0.45956523  0.89842881  0.18894234    -0.04600
C1934       C  0.46422580  0.87683268  0.19421218    -0.32000
C1935       C  0.46855794  0.86144018  0.17820996     0.37200
C1936       C  0.46991181  0.86757198  0.15617659    -0.04900
C1937       C  0.46696641  0.88964388  0.15101101    -0.31900
C1938       C  0.46147035  0.90490219  0.16714664     0.37100
H1939       H  0.46214593  0.87131626  0.21077926     0.17500
O1940       O  0.47097648  0.84026928  0.18441533    -0.59400
H1941       H  0.46870731  0.89508991  0.13440840     0.17500
O1942       O  0.45719739  0.92588441  0.16135657    -0.59500
H1943       H  0.44158502  0.92612664  0.15752244     0.44500
H1944       H  0.45604768  0.83426592  0.18479603     0.44500
C1945       C  0.29111656  0.02746621  0.54978110    -0.04600
C1946       C  0.28399579  0.01513421  0.56751023    -0.32000
C1947       C  0.29869962  0.00600403  0.58216667     0.37200
C1948       C  0.32131063  0.00959727  0.57986550    -0.04900
C1949       C  0.32860469  0.02062898  0.56128279    -0.31900
C1950       C  0.31370336  0.02976966  0.54653813     0.37100
H1951       H  0.26685284  0.01404857  0.57119053     0.17500
O1952       O  0.29059437  0.99408868  0.59913511    -0.59400
H1953       H  0.34582500  0.02311038  0.55872688     0.17500
O1954       O  0.32132072  0.04234163  0.52984472    -0.59500
H1955       H  0.32321162  0.05697957  0.53612381     0.44500
H1956       H  0.28908809  0.97917132  0.59343326     0.44500
C1957       C  0.18993961  0.09285008  0.50977926    -0.04600
C1958       C  0.20991727  0.10366381  0.50759000    -0.32000
C1959       C  0.22960454  0.09300216  0.51047572     0.37200
C1960       C  0.23009425  0.07114623  0.51688518    -0.04900
C1961       C  0.21035169  0.05983177  0.51843368    -0.31900
C1962       C  0.19037394  0.07043471  0.51461999     0.37100
H1963       H  0.21050962  0.12061883  0.50320007     0.17500
O1964       O  0.24849241  0.10458765  0.50832778    -0.59400
H1965       H  0.21032371  0.04310193  0.52365346     0.17500
O1966       O  0.17152463  0.05869685  0.51561953    -0.59500
H1967       H  0.16625888  0.06034741  0.53073170     0.44500
H1968       H  0.25256028  0.10325872  0.49281729     0.44500
C1969       C  0.27748661  0.02658350  0.38539005    -0.04600
C1970       C  0.27441310  0.01633322  0.36542359    -0.32000
C1971       C  0.29169054  0.01208428  0.35142221     0.37200
C1972       C  0.31337714  0.01663488  0.35761258    -0.04900
C1973       C  0.31670665  0.02576189  0.37832688    -0.31900
C1974       C  0.29891398  0.03121321  0.39192143     0.37100
H1975       H  0.25807580  0.01316024  0.35975979     0.17500
O1976       O  0.28688869  0.00340673  0.33155509    -0.59400
H1977       H  0.33304025  0.02920500  0.38374961     0.17500
O1978       O  0.30256536  0.04236549  0.41074141    -0.59500
H1979       H  0.30291238  0.03118676  0.42226579     0.44500
H1980       H  0.28400413  0.01599302  0.32201011     0.44500
C1981       C  0.21415868  0.05577812  0.42889871    -0.04600
C1982       C  0.21876248  0.07563641  0.43866899    -0.32000
C1983       C  0.20220429  0.08925742  0.44597651     0.37200
C1984       C  0.18012993  0.08315331  0.44398462    -0.04900
C1985       C  0.17552995  0.06228515  0.43609708    -0.31900
C1986       C  0.19233357  0.04878420  0.42831190     0.37100
H1987       H  0.23521088  0.08179355  0.43857395     0.17500
O1988       O  0.20796197  0.10870934  0.45495431    -0.59400
H1989       H  0.15886643  0.05681102  0.43508315     0.17500
O1990       O  0.18708859  0.02963288  0.41844245    -0.59500
H1991       H  0.19120265  0.01821968  0.42897152     0.44500
H1992       H  0.21110306  0.11837177  0.44248871     0.44500
C1993       C  0.28110279  0.93381261  0.55969654    -0.04600
C1994       C  0.28701840  0.91941442  0.57651757    -0.32000
C1995       C  0.30613012  0.92227075  0.58841153     0.37200
C1996       C  0.32065547  0.93874781  0.58271294    -0.04900
C1997       C  0.31655504  0.95091378  0.56385086    -0.31900
C1998       C  0.29680870  0.94882187  0.55254331     0.37100
H1999       H  0.27574230  0.90706307  0.58190462     0.17500
O2000       O  0.30988101  0.90967270  0.60632892    -0.59400
H2001       H  0.32758494  0.96379008  0.55924563     0.17500
O2002       O  0.29263356  0.96253548  0.53564756    -0.59500
H2003       H  0.28984632  0.97682844  0.54235683     0.44500
H2004       H  0.30104648  0.91620018  0.61809466     0.44500
C2005       C  0.18166118  0.88155541  0.51411421    -0.04600
C2006       C  0.20326374  0.87562847  0.51856019    -0.32000
C2007       C  0.21898162  0.89112476  0.52390243     0.37200
C2008       C  0.21335036  0.91313676  0.52520978    -0.04900
C2009       C  0.19199247  0.91928485  0.52032816    -0.31900
C2010       C  0.17628096  0.90381278  0.51461727     0.37100
H2011       H  0.20813989  0.85880978  0.51797592     0.17500
O2012       O  0.23930275  0.88440061  0.52999991    -0.59400
H2013       H  0.18720598  0.93606597  0.52198969     0.17500
O2014       O  0.15574838  0.91072112  0.50963162    -0.59500
H2015       H  0.14803946  0.91171040  0.52372882     0.44500
H2016       H  0.24577066  0.87763603  0.51692006     0.44500
C2017       C  0.29005699  0.93596791  0.39749056    -0.04600
C2018       C  0.28357129  0.94514823  0.37783063    -0.32000
C2019       C  0.29869207  0.95142132  0.36212636     0.37200
C2020       C  0.32127151  0.94939151  0.36594055    -0.04900
C2021       C  0.32791480  0.94162715  0.38634955    -0.31900
C2022       C  0.31249820  0.93454822  0.40184988     0.37100
H2023       H  0.26654037  0.94538963  0.37355604     0.17500
O2024       O  0.29097000  0.95932792  0.34287531    -0.59400
H2025       H  0.34504432  0.94025151  0.38998138     0.17500
O2026       O  0.31951854  0.92470721  0.42046848    -0.59500
H2027       H  0.32175539  0.93665785  0.43092982     0.44500
H2028       H  0.28749309  0.94638641  0.33406141     0.44500
C2029       C  0.22748378  0.89856564  0.43519391    -0.04600
C2030       C  0.23049577  0.87966367  0.44731215    -0.32000
C2031       C  0.21311911  0.86631541  0.45295945     0.37200
C2032       C  0.19160973  0.87184206  0.44705180    -0.04900
C2033       C  0.18830646  0.89175873  0.43636173    -0.31900
C2034       C  0.20607687  0.90491398  0.43017464     0.37100
H2035       H  0.24679191  0.87409001  0.45080356     0.17500
O2036       O  0.21758523  0.84777385  0.46433693    -0.59400
H2037       H  0.17201714  0.89680433  0.43218052     0.17500
O2038       O  0.20243802  0.92292650  0.41772695    -0.59500
H2039       H  0.20539299  0.93538523  0.42739178     0.44500
H2040       H  0.22204287  0.83702195  0.45325532     0.44500
C2041       C  0.03768344  0.71032380  0.56689084    -0.04600
C2042       C  0.04467543  0.68968445  0.56019877    -0.32000
C2043       C  0.03976430  0.67109841  0.57268110     0.37200
C2044       C  0.02819138  0.67320507  0.59234476    -0.04900
C2045       C  0.02045549  0.69377224  0.59818163    -0.31900
C2046       C  0.02475512  0.71197998  0.58564196     0.37100
H2047       H  0.05524212  0.68817412  0.54621093     0.17500
O2048       O  0.04720830  0.65127843  0.56607553    -0.59400
H2049       H  0.01109180  0.69600753  0.61288742     0.17500
O2050       O  0.01823962  0.73182832  0.59320154    -0.59500
H2051       H  0.00221725  0.73199041  0.59166948     0.44500
H2052       H  0.06214759  0.65019998  0.57191881     0.44500
C2053       C  0.10483845  0.80417515  0.51469495    -0.04600
C2054       C  0.11121283  0.78238065  0.51620299    -0.32000
C2055       C  0.09660515  0.76614547  0.52223445     0.37200
C2056       C  0.07495176  0.77130623  0.52746150    -0.04900
C2057       C  0.06817552  0.79294003  0.52529179    -0.31900
C2058       C  0.08282740  0.80926788  0.51872127     0.37100
H2059       H  0.12783783  0.77769543  0.51290627     0.17500
O2060       O  0.10436990  0.74563281  0.52579330    -0.59400
H2061       H  0.05189318  0.79744209  0.53020350     0.17500
O2062       O  0.07557356  0.83015596  0.51702932    -0.59500
H2063       H  0.07933786  0.83705314  0.53103442     0.44500
H2064       H  0.10934960  0.74034485  0.51143770     0.44500
C2065       C  0.05808926  0.69227744  0.41191459    -0.04600
C2066       C  0.03756727  0.68318968  0.41562789    -0.32000
C2067       C  0.03248771  0.66257542  0.40738978     0.37200
C2068       C  0.04755066  0.65135839  0.39420899    -0.04900
C2069       C  0.06885456  0.65907900  0.39310490    -0.31900
C2070       C  0.07436428  0.67901337  0.40250460     0.37100
H2071       H  0.02481608  0.69269178  0.42301885     0.17500
O2072       O  0.01176788  0.65493971  0.40978449    -0.59400
H2073       H  0.08082937  0.65052415  0.38348427     0.17500
O2074       O  0.09540551  0.68628499  0.40101621    -0.59500
H2075       H  0.09853817  0.68789682  0.38531399     0.44500
H2076       H  0.01245331  0.64472069  0.42215663     0.44500
C2077       C  0.08035809  0.76581300  0.43323741    -0.04600
C2078       C  0.09977811  0.75955852  0.44320291    -0.32000
C2079       C  0.11547453  0.77486736  0.44914289     0.37200
C2080       C  0.11186760  0.79721706  0.44551517    -0.04900
C2081       C  0.09208244  0.80346936  0.43599114    -0.31900
C2082       C  0.07672302  0.78797995  0.42942562     0.37100
H2083       H  0.10352698  0.74253110  0.44499917     0.17500
O2084       O  0.13458151  0.76761136  0.45788116    -0.59400
H2085       H  0.08861009  0.82042063  0.43324647     0.17500
O2086       O  0.05847838  0.79458882  0.41860368    -0.59500
H2087       H  0.06301207  0.79599805  0.40322250     0.44500
H2088       H  0.13113703  0.76411743  0.47319682     0.44500
C2089       C  0.96137829  0.66707647  0.58866819    -0.04600
C2090       C  0.95520034  0.66119639  0.56751484    -0.32000
C2091       C  0.94919381  0.67701333  0.55217346     0.37200
C2092       C  0.95011208  0.69919169  0.55744943    -0.04900
C2093       C  0.95763685  0.70502633  0.57801337    -0.31900
C2094       C  0.96258191  0.68942141  0.59364911     0.37100
H2095       H  0.95439820  0.64428505  0.56303593     0.17500
O2096       O  0.94065058  0.67057341  0.53273454    -0.59400
H2097       H  0.95741161  0.72187052  0.58285165     0.17500
O2098       O  0.96832935  0.69642551  0.61391598    -0.59500
H2099       H  0.95446263  0.69781920  0.62201183     0.44500
H2100       H  0.95268736  0.67210710  0.52213262     0.44500
C2101       C  0.88546071  0.79647704  0.50723032    -0.04600
C2102       C  0.87833998  0.77538581  0.50259892    -0.32000
C2103       C  0.89099449  0.75727800  0.50729478     0.37200
C2104       C  0.91095654  0.75949035  0.51813485    -0.04900
C2105       C  0.91871972  0.78048854  0.52222775    -0.31900
C2106       C  0.90631588  0.79891982  0.51652778     0.37100
H2107       H  0.86271838  0.77267983  0.49509844     0.17500
O2108       O  0.88267477  0.73713064  0.50307496    -0.59400
H2109       H  0.93372582  0.78259305  0.53107836     0.17500
O2110       O  0.91450659  0.81909985  0.52066369    -0.59500
H2111       H  0.91043813  0.82220431  0.53591376     0.44500
H2112       H  0.88442999  0.73511148  0.48721891     0.44500
C2113       C  0.95970503  0.70468660  0.39537250    -0.04600
C2114       C  0.95776225  0.68408542  0.40474081    -0.32000
C2115       C  0.96605675  0.66570166  0.39406554     0.37200
C2116       C  0.97674284  0.66789270  0.37382463    -0.04900
C2117       C  0.97860328  0.68865763  0.36474060    -0.31900
C2118       C  0.97023566  0.70679247  0.37522420     0.37100
H2119       H  0.94877126  0.68210022  0.41973652     0.17500
O2120       O  0.96371828  0.64580976  0.40363151    -0.59400
H2121       H  0.98650905  0.69102186  0.34920939     0.17500
O2122       O  0.97091562  0.72644123  0.36483870    -0.59500
H2123       H  0.98646578  0.73056642  0.36436397     0.44500
H2124       H  0.94900100  0.64083787  0.39948904     0.44500
C2125       C  0.92165405  0.76624277  0.43291652    -0.04600
C2126       C  0.90099667  0.76234824  0.44147286    -0.32000
C2127       C  0.88658882  0.77925073  0.44546268     0.37200
C2128       C  0.89299987  0.80104633  0.44218506    -0.04900
C2129       C  0.91467334  0.80508162  0.43600940    -0.31900
C2130       C  0.92884683  0.78781467  0.43102822     0.37100
H2131       H  0.89500626  0.74589792  0.44265049     0.17500
O2132       O  0.86605218  0.77404040  0.45236627    -0.59400
H2133       H  0.92033602  0.82156191  0.43414953     0.17500
O2134       O  0.94894155  0.79220102  0.42247648    -0.59500
H2135       H  0.95937768  0.78849698  0.43411781     0.44500
H2136       H  0.85778598  0.77085867  0.43897430     0.44500
C2137       C  0.67958461  0.01371846  0.58564307    -0.04600
C2138       C  0.67163493  0.02601699  0.56818761    -0.32000
C2139       C  0.68577789  0.03431904  0.55235911     0.37200
C2140       C  0.70820289  0.03012093  0.55356751    -0.04900
C2141       C  0.71604829  0.01725358  0.57045492    -0.31900
C2142       C  0.70210516  0.00915378  0.58640292     0.37100
H2143       H  0.65444051  0.02940783  0.56690506     0.17500
O2144       O  0.67767562  0.04739072  0.53634336    -0.59400
H2145       H  0.73330665  0.01468704  0.57223483     0.17500
O2146       O  0.71078117  0.99655044  0.60250164    -0.59500
H2147       H  0.71611608  0.00689234  0.61355027     0.44500
H2148       H  0.67725486  0.03819583  0.52318297     0.44500
C2149       C  0.82316247  0.06929533  0.52756264    -0.04600
C2150       C  0.81375589  0.05660449  0.51117875    -0.32000
C2151       C  0.79229312  0.04923914  0.51312038     0.37200
C2152       C  0.78058773  0.05319310  0.53232076    -0.04900
C2153       C  0.79166971  0.06220032  0.55011521    -0.31900
C2154       C  0.81258031  0.07076281  0.54766639     0.37100
H2155       H  0.82164621  0.05541780  0.49550096     0.17500
O2156       O  0.78233456  0.04068510  0.49529642    -0.59400
H2157       H  0.78311630  0.06499622  0.56523589     0.17500
O2158       O  0.82163686  0.08244521  0.56422999    -0.59500
H2159       H  0.81420008  0.09667206  0.56399253     0.44500
H2160       H  0.77561774  0.05319312  0.48783960     0.44500
C2161       C  0.71483711  0.02106226  0.39486745    -0.04600
C2162       C  0.69281229  0.02389869  0.40034206    -0.32000
C2163       C  0.67620289  0.01741640  0.38604061     0.37200
C2164       C  0.68158107  0.00826167  0.36576690    -0.04900
C2165       C  0.70364597  0.00484385  0.36089532    -0.31900
C2166       C  0.72001218  0.01109708  0.37506809     0.37100
H2167       H  0.68852835  0.03252024  0.41502485     0.17500
O2168       O  0.65494903  0.02080597  0.39173731    -0.59400
H2169       H  0.70850767  0.99750966  0.34570857     0.17500
O2170       O  0.74122662  0.00888929  0.36860023    -0.59500
H2171       H  0.74422724  0.02154877  0.35917321     0.44500
H2172       H  0.65145783  0.03549658  0.38630009     0.44500
C2173       C  0.77200340  0.05952257  0.43896392    -0.04600
C2174       C  0.79349891  0.05200953  0.43784768    -0.32000
C2175       C  0.81071770  0.06400147  0.44696656     0.37200
C2176       C  0.80659192  0.08389140  0.45754792    -0.04900
C2177       C  0.78488662  0.09080720  0.45924676    -0.31900
C2178       C  0.76785853  0.07899750  0.45008835     0.37100
H2179       H  0.79714800  0.03756515  0.42860442     0.17500
O2180       O  0.83147854  0.05626813  0.44505732    -0.59400
H2181       H  0.78092271  0.10580475  0.46740267     0.17500
O2182       O  0.74731166  0.08758713  0.45051061    -0.59500
H2183       H  0.74280053  0.08735713  0.46596428     0.44500
H2184       H  0.83654763  0.06118757  0.43058716     0.44500
C2185       C  0.71075583  0.92753831  0.55966429    -0.04600
C2186       C  0.70069368  0.94696082  0.55352797    -0.32000
C2187       C  0.68062359  0.95304646  0.56270871     0.37200
C2188       C  0.67079892  0.94005411  0.57883788    -0.04900
C2189       C  0.67944912  0.91956477  0.58288488    -0.31900
C2190       C  0.69891520  0.91302370  0.57303268     0.37100
H2191       H  0.70899292  0.95833293  0.54311562     0.17500
O2192       O  0.67222954  0.97300975  0.55794558    -0.59400
H2193       H  0.67197578  0.90921182  0.59497290     0.17500
O2194       O  0.70680258  0.89266193  0.57726298    -0.59500
H2195       H  0.70950549  0.89212712  0.59310193     0.44500
H2196       H  0.66626666  0.97168877  0.54309911     0.44500
C2197       C  0.78019357  0.90439719  0.52591189    -0.04600
C2198       C  0.80191936  0.91109502  0.52476126    -0.32000
C2199       C  0.81807696  0.89742831  0.51625819     0.37200
C2200       C  0.81272130  0.87638865  0.50904745    -0.04900
C2201       C  0.79071850  0.87017596  0.50943141    -0.31900
C2202       C  0.77466549  0.88383474  0.51788068     0.37100
H2203       H  0.80654712  0.92659786  0.53148603     0.17500
O2204       O  0.83901202  0.90486644  0.51518733    -0.59400
H2205       H  0.78584072  0.85442868  0.50351769     0.17500
O2206       O  0.75376889  0.87633795  0.51949104    -0.59500
H2207       H  0.75296849  0.86885514  0.53369446     0.44500
H2208       H  0.84566566  0.90063688  0.52917280     0.44500
C2209       C  0.70649836  0.92475515  0.40424621    -0.04600
C2210       C  0.71471278  0.93207644  0.38442155    -0.32000
C2211       C  0.70087713  0.93859094  0.36767730     0.37200
C2212       C  0.67799638  0.93809558  0.37046177    -0.04900
C2213       C  0.66976530  0.93139099  0.39072527    -0.31900
C2214       C  0.68380049  0.92431841  0.40731548     0.37100
H2215       H  0.73204094  0.93157677  0.38138327     0.17500
O2216       O  0.71007179  0.94498486  0.34842653    -0.59400
H2217       H  0.65241811  0.93128313  0.39362446     0.17500
O2218       O  0.67519883  0.91679714  0.42641849    -0.59500
H2219       H  0.67224467  0.90123944  0.42388235     0.44500
H2220       H  0.71669475  0.95928675  0.35137246     0.44500
C2221       C  0.77754778  0.89988542  0.42978899    -0.04600
C2222       C  0.78809063  0.88725781  0.41385046    -0.32000
C2223       C  0.80848662  0.87788825  0.41760776     0.37200
C2224       C  0.81955700  0.88210029  0.43697888    -0.04900
C2225       C  0.81061103  0.89730050  0.45145153    -0.31900
C2226       C  0.78957072  0.90572915  0.44831158     0.37100
H2227       H  0.77944102  0.88267290  0.39929625     0.17500
O2228       O  0.81670457  0.86326846  0.40302032    -0.59400
H2229       H  0.81872746  0.90052385  0.46665692     0.17500
O2230       O  0.78038544  0.91785100  0.46444194    -0.59500
H2231       H  0.77580171  0.90728300  0.47565945     0.44500
H2232       H  0.80882977  0.84956559  0.40592395     0.44500
loop_ 
_geom_bond_atom_site_label_1 
_geom_bond_atom_site_label_2 
_geom_bond_distance 
_geom_bond_site_symmetry_2 
_ccdc_geom_bond_type 
N1            C5   1.369       .  A
N1            C2   1.373       .  A
N1           C50   1.456       .  S
C2            C3   1.385       .  A
C2         C2221   1.504       .  S
C3            C4   1.364       .  A
C3            H6   1.083       .  S
C4            C5   1.379       .  A
C4            H7   1.083       .  S
C5         C2209   1.484       .  S
N8           C12   1.369       .  A
N8            C9   1.365       .  A
N8           C51   1.452       .  S
C9           C10   1.377       .  A
C9         C2197   1.479       .  S
C10          C11   1.363       .  A
C10          H13   1.083       .  S
C11          C12   1.385       .  A
C11          H14   1.082       .  S
C12        C2185   1.499       .  S
N15          C19   1.368       .  A
N15          C16   1.374       .  A
N15          C49   1.460       .  S
C16          C17   1.380       .  A
C16        C2173   1.486       .  S
C17          C18   1.360       .  A
C17          H20   1.083       .  S
C18          C19   1.379       .  A
C18          H21   1.083       .  S
C19        C2161   1.476       .  S
N22          C26   1.363       .  A
N22          C23   1.363       .  A
N22          C52   1.451       .  S
C23          C24   1.379       .  A
C23        C2140   1.475       .  S
C24          C25   1.365       .  A
C24          H27   1.083       .  S
C25          C26   1.384       .  A
C25          H28   1.083       .  S
C26        C2152   1.488       .  S
N29          C34   1.358       .  A
N29          C33   1.359       .  A
N29          H61   1.041       .  S
N30          C37   1.354       .  A
N30          C38   1.355       .  A
N31          C36   1.353       .  A
N31          C35   1.354       .  A
N31          H62   1.041       .  S
N32          C39   1.353       .  A
N32          C40   1.356       .  A
C33          C41   1.385       .  A
C33          C49   1.428   1_565  A
C34          C50   1.424       .  A
C34          C42   1.385       .  A
C35          C43   1.382       .  A
C35          C52   1.411   1_565  A
C36          C51   1.421       .  A
C36          C44   1.388       .  A
C37          C49   1.414       .  A
C37          C45   1.381       .  A
C38          C52   1.419       .  A
C38          C46   1.386       .  A
C39          C47   1.389       .  A
C39          C50   1.425       .  A
C40          C48   1.379       .  A
C40          C51   1.411       .  A
C41          C42   1.389       .  A
C41          H53   1.079       .  S
C42          H54   1.082       .  S
C43          C44   1.383       .  A
C43          H55   1.082   1_565  S
C44          H56   1.081       .  S
C45          C46   1.375       .  A
C45          H57   1.081       .  S
C46          H58   1.081       .  S
C47          C48   1.376       .  A
C47          H59   1.080       .  S
C48          H60   1.081       .  S
N63          C67   1.367       .  A
N63          C64   1.368       .  A
N63         C112   1.459       .  S
C64          C65   1.379       .  A
C64        C2113   1.475       .  S
C65          C66   1.359       .  A
C65          H68   1.083       .  S
C66          C67   1.380       .  A
C66          H69   1.083       .  S
C67        C2125   1.476       .  S
N70          C74   1.374       .  A
N70          C71   1.372       .  A
N70         C111   1.463       .  S
C71          C72   1.378       .  A
C71        C2092   1.478       .  S
C72          C73   1.356       .  A
C72          H75   1.083       .  S
C73          C74   1.381       .  A
C73          H76   1.083       .  S
C74        C2104   1.488       .  S
N77          C81   1.371       .  A
N77          C78   1.372       .  A
N77         C113   1.461       .  S
C78          C79   1.383       .  A
C78        C2065   1.496       .  S
C79          C80   1.359       .  A
C79          H82   1.082       .  S
C80          C81   1.379       .  A
C80          H83   1.083       .  S
C81        C2077   1.481       .  S
N84          C88   1.373       .  A
N84          C85   1.370       .  A
N84         C114   1.462       .  S
C85          C86   1.380       .  A
C85        C2041   1.481       .  S
C86          C87   1.358       .  A
C86          H89   1.083       .  S
C87          C88   1.380       .  A
C87          H90   1.083       .  S
C88        C2056   1.480       .  S
N91          C96   1.357       .  A
N91          C95   1.358       .  A
N91         H123   1.041       .  S
N92          C99   1.362       .  A
N92         C100   1.359   1_655  A
N93          C98   1.360       .  A
N93          C97   1.357       .  A
N93         H124   1.041       .  S
N94         C101   1.360   1_455  A
N94         C102   1.359       .  A
C95         C103   1.385       .  A
C95         C111   1.423       .  A
C96         C112   1.419       .  A
C96         C104   1.384       .  A
C97         C105   1.385       .  A
C97         C114   1.425       .  A
C98         C113   1.424       .  A
C98         C106   1.385       .  A
C99         C111   1.423       .  A
C99         C107   1.381       .  A
C100        C114   1.429       .  A
C100        C108   1.385       .  A
C101        C109   1.381       .  A
C101        C112   1.423       .  A
C102        C110   1.387       .  A
C102        C113   1.429       .  A
C103        C104   1.379       .  A
C103        H115   1.081       .  S
C104        H116   1.082       .  S
C105        C106   1.385       .  A
C105        H117   1.080       .  S
C106        H118   1.082       .  S
C107        C108   1.379   1_655  A
C107        H119   1.082       .  S
C108        H120   1.080       .  S
C109        C110   1.376   1_655  A
C109        H121   1.080       .  S
C110        H122   1.081       .  S
N125        C129   1.372       .  A
N125        C126   1.372       .  A
N125        C173   1.460       .  S
C126        C127   1.380       .  A
C126       C2029   1.485       .  S
C127        C128   1.360       .  A
C127        H130   1.083       .  S
C128        C129   1.379       .  A
C128        H131   1.083       .  S
C129       C2017   1.482       .  S
N132        C136   1.375       .  A
N132        C133   1.369       .  A
N132        C176   1.460       .  S
C133        C134   1.377       .  A
C133       C2008   1.480       .  S
C134        C135   1.359       .  A
C134        H137   1.083       .  S
C135        C136   1.386       .  A
C135        H138   1.083       .  S
C136       C1993   1.504       .  S
N139        C143   1.373       .  A
N139        C140   1.371       .  A
N139        C174   1.459       .  S
C140        C141   1.378       .  A
C140       C1981   1.481       .  S
C141        C142   1.360       .  A
C141        H144   1.083       .  S
C142        C143   1.383       .  A
C142        H145   1.083       .  S
C143       C1969   1.489       .  S
N146        C150   1.374       .  A
N146        C147   1.370       .  A
N146        C175   1.460       .  S
C147        C148   1.383       .  A
C147       C1960   1.487       .  S
C148        C149   1.359       .  A
C148        H151   1.083       .  S
C149        C150   1.377       .  A
C149        H152   1.083       .  S
C150       C1945   1.485       .  S
N153        C158   1.360       .  A
N153        C157   1.360       .  A
N153        H185   1.040       .  S
N154        C161   1.357       .  A
N154        C162   1.358       .  A
N155        C160   1.357   1_565  A
N155        C159   1.358       .  A
N155        H186   1.041       .  S
N156        C163   1.357       .  A
N156        C164   1.359       .  A
C157        C165   1.383       .  A
C157        C173   1.424       .  A
C158        C174   1.427   1_565  A
C158        C166   1.387       .  A
C159        C167   1.389       .  A
C159        C176   1.429       .  A
C160        C175   1.413       .  A
C160        C168   1.379       .  A
C161        C173   1.424       .  A
C161        C169   1.386       .  A
C162        C176   1.419       .  A
C162        C170   1.381       .  A
C163        C171   1.384       .  A
C163        C174   1.423       .  A
C164        C172   1.385       .  A
C164        C175   1.425       .  A
C165        C166   1.381       .  A
C165        H177   1.081       .  S
C166        H178   1.082       .  S
C167        C168   1.375   1_565  A
C167        H179   1.079       .  S
C168        H180   1.082       .  S
C169        C170   1.380       .  A
C169        H181   1.081       .  S
C170        H182   1.081       .  S
C171        C172   1.381       .  A
C171        H183   1.082       .  S
C172        H184   1.081       .  S
N187        C191   1.372       .  A
N187        C188   1.371       .  A
N187        C235   1.460       .  S
C188        C189   1.378       .  A
C188       C1924   1.482       .  S
C189        C190   1.357       .  A
C189        H192   1.083       .  S
C190        C191   1.381       .  A
C190        H193   1.083       .  S
C191       C1933   1.483       .  S
N194        C198   1.368       .  A
N194        C195   1.366       .  A
N194        C238   1.455       .  S
C195        C196   1.381       .  A
C195       C1897   1.479       .  S
C196        C197   1.362       .  A
C196        H199   1.083       .  S
C197        C198   1.380       .  A
C197        H200   1.083       .  S
C198       C1909   1.475       .  S
N201        C205   1.377       .  A
N201        C202   1.375       .  A
N201        C236   1.464       .  S
C202        C203   1.378       .  A
C202       C1885   1.483       .  S
C203        C204   1.356       .  A
C203        H206   1.083       .  S
C204        C205   1.381       .  A
C204        H207   1.083       .  S
C205       C1873   1.489       .  S
N208        C212   1.369       .  A
N208        C209   1.367       .  A
N208        C237   1.458       .  S
C209        C210   1.379       .  A
C209       C1861   1.475       .  S
C210        C211   1.358       .  A
C210        H213   1.083       .  S
C211        C212   1.381       .  A
C211        H214   1.083       .  S
C212       C1852   1.480       .  S
N215        C220   1.362       .  A
N215        C219   1.360       .  A
N215        H247   1.040       .  S
N216        C223   1.357       .  A
N216        C224   1.357       .  A
N217        C222   1.357       .  A
N217        C221   1.358       .  A
N217        H248   1.039       .  S
N218        C225   1.360       .  A
N218        C226   1.359       .  A
C219        C227   1.384       .  A
C219        C235   1.427       .  A
C220        C236   1.425   1_565  A
C220        C228   1.384       .  A
C221        C229   1.386       .  A
C221        C238   1.420       .  A
C222        C237   1.419   1_565  A
C222        C230   1.384       .  A
C223        C235   1.420       .  A
C223        C231   1.384       .  A
C224        C238   1.419       .  A
C224        C232   1.383       .  A
C225        C233   1.383       .  A
C225        C236   1.424       .  A
C226        C234   1.382       .  A
C226        C237   1.424       .  A
C227        C228   1.382       .  A
C227        H239   1.081       .  S
C228        H240   1.082   1_565  S
C229        C230   1.379       .  A
C229        H241   1.082       .  S
C230        H242   1.081   1_565  S
C231        C232   1.380       .  A
C231        H243   1.082       .  S
C232        H244   1.081       .  S
C233        C234   1.380       .  A
C233        H245   1.082       .  S
C234        H246   1.080       .  S
N249        C253   1.370       .  A
N249        C250   1.371       .  A
N249        C297   1.459       .  S
C250        C251   1.380       .  A
C250       C1837   1.480       .  S
C251        C252   1.361       .  A
C251        H254   1.083       .  S
C252        C253   1.379       .  A
C252        H255   1.083       .  S
C253       C1825   1.480       .  S
N256        C260   1.370       .  A
N256        C257   1.374       .  A
N256        C298   1.458       .  S
C257        C258   1.380       .  A
C257       C1801   1.489       .  S
C258        C259   1.363       .  A
C258        H261   1.083       .  S
C259        C260   1.381       .  A
C259        H262   1.082       .  S
C260       C1813   1.494       .  S
N263        C267   1.371       .  A
N263        C264   1.365       .  A
N263        C300   1.453       .  S
C264        C265   1.381       .  A
C264       C1792   1.485       .  S
C265        C266   1.360       .  A
C265        H268   1.082       .  S
C266        C267   1.380       .  A
C266        H269   1.083       .  S
C267       C1777   1.480       .  S
N270        C274   1.372       .  A
N270        C271   1.369       .  A
N270        C299   1.462       .  S
C271        C272   1.381       .  A
C271       C1753   1.479       .  S
C272        C273   1.356       .  A
C272        H275   1.083       .  S
C273        C274   1.379       .  A
C273        H276   1.083       .  S
C274       C1768   1.478       .  S
N277        C282   1.358       .  A
N277        C281   1.360       .  A
N277        H309   1.041       .  S
N278        C285   1.355       .  A
N278        C286   1.354   1_556  A
N279        C284   1.357       .  A
N279        C283   1.357       .  A
N279        H310   1.041   1_554  S
N280        C287   1.356       .  A
N280        C288   1.358       .  A
C281        C289   1.381       .  A
C281        C297   1.420       .  A
C282        C298   1.430       .  A
C282        C290   1.389       .  A
C283        C291   1.388       .  A
C283        C300   1.424       .  A
C284        C299   1.416       .  A
C284        C292   1.381       .  A
C285        C297   1.419       .  A
C285        C293   1.384       .  A
C286        C300   1.413       .  A
C286        C294   1.381       .  A
C287        C295   1.383       .  A
C287        C298   1.419       .  A
C288        C296   1.386       .  A
C288        C299   1.426   1_556  A
C289        C290   1.383       .  A
C289        H301   1.082       .  S
C290        H302   1.081       .  S
C291        C292   1.381       .  A
C291        H303   1.081       .  S
C292        H304   1.081       .  S
C293        C294   1.379   1_556  A
C293        H305   1.081       .  S
C294        H306   1.081       .  S
C295        C296   1.382       .  A
C295        H307   1.082       .  S
C296        H308   1.080       .  S
N311        C315   1.371       .  A
N311        C312   1.369       .  A
N311        C359   1.455       .  S
C312        C313   1.381       .  A
C312       C1729   1.487       .  S
C313        C314   1.362       .  A
C313        H316   1.083       .  S
C314        C315   1.380       .  A
C314        H317   1.083       .  S
C315       C1741   1.482       .  S
N318        C322   1.371       .  A
N318        C319   1.369       .  A
N318        C360   1.459       .  S
C319        C320   1.378       .  A
C319       C1705   1.476       .  S
C320        C321   1.359       .  A
C320        H323   1.083       .  S
C321        C322   1.381       .  A
C321        H324   1.083       .  S
C322       C1717   1.480       .  S
N325        C329   1.373       .  A
N325        C326   1.373       .  A
N325        C362   1.462       .  S
C326        C327   1.381       .  A
C326       C1696   1.486       .  S
C327        C328   1.357       .  A
C327        H330   1.083       .  S
C328        C329   1.379       .  A
C328        H331   1.083       .  S
C329       C1684   1.482       .  S
N332        C336   1.372       .  A
N332        C333   1.372       .  A
N332        C361   1.458       .  S
C333        C334   1.376       .  A
C333       C1669   1.477       .  S
C334        C335   1.355       .  A
C334        H337   1.083       .  S
C335        C336   1.386       .  A
C335        H338   1.083       .  S
C336       C1657   1.496       .  S
N339        C344   1.358       .  A
N339        C343   1.356       .  A
N339        H371   1.040       .  S
N340        C347   1.357       .  A
N340        C348   1.358   1_565  A
N341        C346   1.359       .  A
N341        C345   1.361       .  A
N341        H372   1.040   1_545  S
N342        C349   1.359       .  A
N342        C350   1.358       .  A
C343        C351   1.384       .  A
C343        C359   1.419       .  A
C344        C360   1.423       .  A
C344        C352   1.386       .  A
C345        C353   1.386       .  A
C345        C362   1.429       .  A
C346        C361   1.423       .  A
C346        C354   1.383       .  A
C347        C359   1.423       .  A
C347        C355   1.385       .  A
C348        C362   1.418       .  A
C348        C356   1.382   1_545  A
C349        C357   1.382       .  A
C349        C360   1.421       .  A
C350        C358   1.387       .  A
C350        C361   1.424   1_565  A
C351        C352   1.384       .  A
C351        H363   1.082       .  S
C352        H364   1.081       .  S
C353        C354   1.382       .  A
C353        H365   1.080       .  S
C354        H366   1.081       .  S
C355        C356   1.378       .  A
C355        H367   1.080       .  S
C356        H368   1.082   1_565  S
C357        C358   1.377       .  A
C357        H369   1.082       .  S
C358        H370   1.081       .  S
N373        C377   1.368       .  A
N373        C374   1.371       .  A
N373        C421   1.458       .  S
C374        C375   1.380       .  A
C374       C1633   1.480       .  S
C375        C376   1.360       .  A
C375        H378   1.083       .  S
C376        C377   1.380       .  A
C376        H379   1.083       .  S
C377       C1645   1.483       .  S
N380        C384   1.371       .  A
N380        C381   1.371       .  A
N380        C424   1.458       .  S
C381        C382   1.378       .  A
C381       C1621   1.481       .  S
C382        C383   1.359       .  A
C382        H385   1.083       .  S
C383        C384   1.383       .  A
C383        H386   1.083       .  S
C384       C1609   1.486       .  S
N387        C391   1.369       .  A
N387        C388   1.370       .  A
N387        C422   1.460       .  S
C388        C389   1.381       .  A
C388       C1585   1.480       .  S
C389        C390   1.359       .  A
C389        H392   1.083       .  S
C390        C391   1.378       .  A
C390        H393   1.083       .  S
C391       C1597   1.475       .  S
N394        C398   1.369       .  A
N394        C395   1.369       .  A
N394        C423   1.457       .  S
C395        C396   1.383       .  A
C395       C1576   1.498       .  S
C396        C397   1.364       .  A
C396        H399   1.082       .  S
C397        C398   1.380       .  A
C397        H400   1.083       .  S
C398       C1564   1.486       .  S
N401        C406   1.357       .  A
N401        C405   1.356       .  A
N401        H433   1.044       .  S
N402        C409   1.359       .  A
N402        C410   1.358       .  A
N403        C408   1.356       .  A
N403        C407   1.356       .  A
N403        H434   1.041       .  S
N404        C411   1.358       .  A
N404        C412   1.358       .  A
C405        C413   1.383       .  A
C405        C421   1.416       .  A
C406        C422   1.423   1_556  A
C406        C414   1.386       .  A
C407        C415   1.389       .  A
C407        C424   1.426       .  A
C408        C423   1.417   1_556  A
C408        C416   1.383       .  A
C409        C421   1.424       .  A
C409        C417   1.384       .  A
C410        C424   1.422       .  A
C410        C418   1.382       .  A
C411        C419   1.379       .  A
C411        C422   1.418       .  A
C412        C420   1.388       .  A
C412        C423   1.429       .  A
C413        C414   1.383       .  A
C413        H425   1.082       .  S
C414        H426   1.080       .  S
C415        C416   1.383       .  A
C415        H427   1.081       .  S
C416        H428   1.082   1_556  S
C417        C418   1.379       .  A
C417        H429   1.081       .  S
C418        H430   1.081       .  S
C419        C420   1.376       .  A
C419        H431   1.082       .  S
C420        H432   1.080       .  S
N435        C439   1.371       .  A
N435        C436   1.369       .  A
N435        C484   1.459       .  S
C436        C437   1.378       .  A
C436       C1537   1.474       .  S
C437        C438   1.357       .  A
C437        H440   1.083       .  S
C438        C439   1.381       .  A
C438        H441   1.083       .  S
C439       C1549   1.481       .  S
N442        C446   1.366       .  A
N442        C443   1.372       .  A
N442        C485   1.457       .  S
C443        C444   1.380       .  A
C443       C1525   1.483       .  S
C444        C445   1.362       .  A
C444        H447   1.083       .  S
C445        C446   1.380       .  A
C445        H448   1.083       .  S
C446       C1513   1.483       .  S
N449        C453   1.371       .  A
N449        C450   1.366       .  A
N449        C483   1.456       .  S
C450        C451   1.381       .  A
C450       C1489   1.488       .  S
C451        C452   1.363       .  A
C451        H454   1.083       .  S
C452        C453   1.381       .  A
C452        H455   1.083       .  S
C453       C1504   1.484       .  S
N456        C460   1.370       .  A
N456        C457   1.369       .  A
N456        C486   1.459       .  S
C457        C458   1.380       .  A
C457       C1477   1.482       .  S
C458        C459   1.359       .  A
C458        H461   1.083       .  S
C459        C460   1.379       .  A
C459        H462   1.083       .  S
C460       C1465   1.477       .  S
N463        C468   1.359       .  A
N463        C467   1.359       .  A
N463        H495   1.039       .  S
N464        C471   1.356       .  A
N464        C472   1.356       .  A
N465        C470   1.359       .  A
N465        C469   1.359   1_556  A
N465        H496   1.040       .  S
N466        C473   1.357       .  A
N466        C474   1.355       .  A
C467        C475   1.388       .  A
C467        C483   1.431   1_556  A
C468        C484   1.422       .  A
C468        C476   1.382       .  A
C469        C477   1.381       .  A
C469        C486   1.420       .  A
C470        C485   1.429       .  A
C470        C478   1.389       .  A
C471        C483   1.415       .  A
C471        C479   1.382       .  A
C472        C486   1.423       .  A
C472        C480   1.386       .  A
C473        C481   1.385       .  A
C473        C484   1.421       .  A
C474        C482   1.382       .  A
C474        C485   1.415       .  A
C475        C476   1.383       .  A
C475        H487   1.081       .  S
C476        H488   1.082       .  S
C477        C478   1.383   1_554  A
C477        H489   1.081       .  S
C478        H490   1.081       .  S
C479        C480   1.379       .  A
C479        H491   1.082       .  S
C480        H492   1.079       .  S
C481        C482   1.377       .  A
C481        H493   1.081       .  S
C482        H494   1.081       .  S
N497        C501   1.370       .  A
N497        C498   1.370       .  A
N497        C546   1.458       .  S
C498        C499   1.379       .  A
C498       C1441   1.484       .  S
C499        C500   1.362       .  A
C499        H502   1.083       .  S
C500        C501   1.383       .  A
C500        H503   1.082       .  S
C501       C1453   1.497       .  S
N504        C508   1.364       .  A
N504        C505   1.367       .  A
N504        C545   1.457       .  S
C505        C506   1.381       .  A
C505       C1417   1.476       .  S
C506        C507   1.362       .  A
C506        H509   1.083       .  S
C507        C508   1.378       .  A
C507        H510   1.083       .  S
C508       C1429   1.470       .  S
N511        C515   1.372       .  A
N511        C512   1.371       .  A
N511        C547   1.457       .  S
C512        C513   1.379       .  A
C512       C1405   1.487       .  S
C513        C514   1.363       .  A
C513        H516   1.082       .  S
C514        C515   1.380       .  A
C514        H517   1.083       .  S
C515       C1393   1.485       .  S
N518        C522   1.369       .  A
N518        C519   1.372       .  A
N518        C548   1.456       .  S
C519        C520   1.384       .  A
C519       C1381   1.499       .  S
C520        C521   1.362       .  A
C520        H523   1.083       .  S
C521        C522   1.377       .  A
C521        H524   1.083       .  S
C522       C1369   1.481       .  S
N525        C530   1.359       .  A
N525        C529   1.360       .  A
N525        H557   1.041       .  S
N526        C533   1.353       .  A
N526        C534   1.356   1_655  A
N527        C532   1.356       .  A
N527        C531   1.356       .  A
N527        H558   1.042       .  S
N528        C535   1.356   1_455  A
N528        C536   1.356       .  A
C529        C537   1.383       .  A
C529        C545   1.423       .  A
C530        C546   1.428       .  A
C530        C538   1.388       .  A
C531        C539   1.386       .  A
C531        C548   1.422       .  A
C532        C547   1.418       .  A
C532        C540   1.383       .  A
C533        C545   1.418       .  A
C533        C541   1.383       .  A
C534        C548   1.416       .  A
C534        C542   1.382       .  A
C535        C543   1.383       .  A
C535        C546   1.417       .  A
C536        C544   1.382       .  A
C536        C547   1.419       .  A
C537        C538   1.381       .  A
C537        H549   1.081       .  S
C538        H550   1.081       .  S
C539        C540   1.378       .  A
C539        H551   1.081       .  S
C540        H552   1.082       .  S
C541        C542   1.383   1_655  A
C541        H553   1.081       .  S
C542        H554   1.081       .  S
C543        C544   1.383   1_655  A
C543        H555   1.081       .  S
C544        H556   1.080       .  S
N559        C563   1.370       .  A
N559        C560   1.369       .  A
N559        C607   1.457       .  S
C560        C561   1.379       .  A
C560       C1360   1.488       .  S
C561        C562   1.364       .  A
C561        H564   1.083       .  S
C562        C563   1.386       .  A
C562        H565   1.082       .  S
C563       C1345   1.504       .  S
N566        C570   1.370       .  A
N566        C567   1.369       .  A
N566        C610   1.459       .  S
C567        C568   1.378       .  A
C567       C1321   1.477       .  S
C568        C569   1.359       .  A
C568        H571   1.083       .  S
C569        C570   1.381       .  A
C569        H572   1.082       .  S
C570       C1333   1.484       .  S
N573        C577   1.373       .  A
N573        C574   1.371       .  A
N573        C608   1.457       .  S
C574        C575   1.384       .  A
C574       C1312   1.491       .  S
C575        C576   1.359       .  A
C575        H578   1.083       .  S
C576        C577   1.377       .  A
C576        H579   1.083       .  S
C577       C1297   1.483       .  S
N580        C584   1.375       .  A
N580        C581   1.374       .  A
N580        C609   1.462       .  S
C581        C582   1.384       .  A
C581       C1276   1.494       .  S
C582        C583   1.357       .  A
C582        H585   1.083       .  S
C583        C584   1.377       .  A
C583        H586   1.083       .  S
C584       C1288   1.484       .  S
N587        C592   1.355   1_556  A
N587        C591   1.358       .  A
N587        H619   1.040       .  S
N588        C595   1.357       .  A
N588        C596   1.355       .  A
N589        C594   1.362       .  A
N589        C593   1.358       .  A
N589        H620   1.040       .  S
N590        C597   1.357       .  A
N590        C598   1.355       .  A
C591        C599   1.389       .  A
C591        C607   1.429       .  A
C592        C608   1.416       .  A
C592        C600   1.380       .  A
C593        C601   1.382       .  A
C593        C610   1.423       .  A
C594        C609   1.432   1_556  A
C594        C602   1.389       .  A
C595        C607   1.414       .  A
C595        C603   1.380       .  A
C596        C610   1.423       .  A
C596        C604   1.387       .  A
C597        C605   1.386       .  A
C597        C608   1.423       .  A
C598        C606   1.383       .  A
C598        C609   1.419       .  A
C599        C600   1.379   1_556  A
C599        H611   1.080       .  S
C600        H612   1.080       .  S
C601        C602   1.385       .  A
C601        H613   1.082       .  S
C602        H614   1.081       .  S
C603        C604   1.378       .  A
C603        H615   1.082       .  S
C604        H616   1.080       .  S
C605        C606   1.381       .  A
C605        H617   1.081       .  S
C606        H618   1.082       .  S
N621        C625   1.368       .  A
N621        C622   1.369       .  A
N621        C670   1.456       .  S
C622        C623   1.379       .  A
C622       C1249   1.479       .  S
C623        C624   1.361       .  A
C623        H626   1.083       .  S
C624        C625   1.381       .  A
C624        H627   1.082       .  S
C625       C1261   1.486       .  S
N628        C632   1.369       .  A
N628        C629   1.366       .  A
N628        C669   1.455       .  S
C629        C630   1.379       .  A
C629       C1228   1.475       .  S
C630        C631   1.361       .  A
C630        H633   1.083       .  S
C631        C632   1.380       .  A
C631        H634   1.083       .  S
C632       C1240   1.480       .  S
N635        C639   1.370       .  A
N635        C636   1.369       .  A
N635        C671   1.459       .  S
C636        C637   1.380       .  A
C636       C1201   1.483       .  S
C637        C638   1.359       .  A
C637        H640   1.083       .  S
C638        C639   1.381       .  A
C638        H641   1.083       .  S
C639       C1216   1.477       .  S
N642        C646   1.377       .  A
N642        C643   1.370       .  A
N642        C672   1.464       .  S
C643        C644   1.379       .  A
C643       C1189   1.481       .  S
C644        C645   1.357       .  A
C644        H647   1.083       .  S
C645        C646   1.380       .  A
C645        H648   1.083       .  S
C646       C1177   1.486       .  S
N649        C654   1.357       .  A
N649        C653   1.355       .  A
N649        H681   1.040       .  S
N650        C657   1.357   1_455  A
N650        C658   1.356       .  A
N651        C656   1.360       .  A
N651        C655   1.362       .  A
N651        H682   1.040       .  S
N652        C659   1.358       .  A
N652        C660   1.356   1_655  A
C653        C661   1.382       .  A
C653        C669   1.414       .  A
C654        C670   1.423       .  A
C654        C662   1.388       .  A
C655        C663   1.387       .  A
C655        C672   1.434       .  A
C656        C671   1.424       .  A
C656        C664   1.383       .  A
C657        C669   1.421       .  A
C657        C665   1.384   1_655  A
C658        C672   1.418       .  A
C658        C666   1.381       .  A
C659        C667   1.381       .  A
C659        C670   1.417       .  A
C660        C668   1.387   1_455  A
C660        C671   1.425       .  A
C661        C662   1.380       .  A
C661        H673   1.082       .  S
C662        H674   1.081       .  S
C663        C664   1.386       .  A
C663        H675   1.080       .  S
C664        H676   1.082       .  S
C665        C666   1.379       .  A
C665        H677   1.081   1_455  S
C666        H678   1.080       .  S
C667        C668   1.380       .  A
C667        H679   1.082       .  S
C668        H680   1.080       .  S
N683        C687   1.374       .  A
N683        C684   1.371       .  A
N683        C731   1.459       .  S
C684        C685   1.376       .  A
C684       C1153   1.476       .  S
C685        C686   1.355       .  A
C685        H688   1.083       .  S
C686        C687   1.385       .  A
C686        H689   1.083       .  S
C687       C1165   1.492       .  S
N690        C694   1.367       .  A
N690        C691   1.364       .  A
N690        C732   1.448       .  S
C691        C692   1.379       .  A
C691       C1141   1.479       .  S
C692        C693   1.368       .  A
C692        H695   1.082       .  S
C693        C694   1.383       .  A
C693        H696   1.082       .  S
C694       C1129   1.487       .  S
N697        C701   1.373       .  A
N697        C698   1.372       .  A
N697        C734   1.461       .  S
C698        C699   1.380       .  A
C698       C1105   1.484       .  S
C699        C700   1.358       .  A
C699        H702   1.083       .  S
C700        C701   1.379       .  A
C700        H703   1.083       .  S
C701       C1117   1.479       .  S
N704        C708   1.376       .  A
N704        C705   1.368       .  A
N704        C733   1.458       .  S
C705        C706   1.378       .  A
C705       C1096   1.479       .  S
C706        C707   1.360       .  A
C706        H709   1.083       .  S
C707        C708   1.384       .  A
C707        H710   1.083       .  S
C708       C1081   1.501       .  S
N711        C716   1.356       .  A
N711        C715   1.356       .  A
N711        H743   1.040       .  S
N712        C719   1.360       .  A
N712        C720   1.360   1_655  A
N713        C718   1.360       .  A
N713        C717   1.356       .  A
N713        H744   1.041       .  S
N714        C721   1.354       .  A
N714        C722   1.354   1_655  A
C715        C723   1.388       .  A
C715        C731   1.421       .  A
C716        C732   1.416       .  A
C716        C724   1.383       .  A
C717        C725   1.386       .  A
C717        C734   1.425       .  A
C718        C733   1.425       .  A
C718        C726   1.385       .  A
C719        C731   1.424       .  A
C719        C727   1.381       .  A
C720        C734   1.427       .  A
C720        C728   1.384   1_455  A
C721        C729   1.381       .  A
C721        C732   1.411       .  A
C722        C730   1.388       .  A
C722        C733   1.421       .  A
C723        C724   1.382       .  A
C723        H735   1.082       .  S
C724        H736   1.082       .  S
C725        C726   1.388       .  A
C725        H737   1.081       .  S
C726        H738   1.082       .  S
C727        C728   1.380       .  A
C727        H739   1.081       .  S
C728        H740   1.081   1_655  S
C729        C730   1.372   1_655  A
C729        H741   1.082       .  S
C730        H742   1.080       .  S
O745       Ni753   1.894   1_455  S
O745        C755   1.279       .  A
O746       Ni753   1.898       .  S
O746        C756   1.279       .  A
O747       Ni753   1.909       .  S
O747        C757   1.280       .  A
O748       Ni753   1.904   1_455  S
O748        C758   1.281       .  A
O749       Ni754   1.940   1_455  S
O749        C758   1.286       .  A
O750       Ni754   1.939       .  S
O750        C757   1.286       .  A
O751       Ni754   1.942       .  S
O751        C756   1.286       .  A
O752       Ni754   1.943   1_455  S
O752        C755   1.286       .  A
Ni753      Ni754   2.382       .  S
C755       C1204   1.492       .  S
C756       C1156   1.489       .  S
C757       C1252   1.499       .  S
C758       C1108   1.497       .  S
O759       Ni767   1.948       .  S
O759        C769   1.287       .  A
O760       Ni767   1.947       .  S
O760        C770   1.288       .  A
O761       Ni767   1.927       .  S
O761        C771   1.283       .  A
O762       Ni767   1.928       .  S
O762        C772   1.283       .  A
O763       Ni768   1.902       .  S
O763        C772   1.278       .  A
O764       Ni768   1.908       .  S
O764        C771   1.281       .  A
O765       Ni768   1.908       .  S
O765        C770   1.280       .  A
O766       Ni768   1.897       .  S
O766        C769   1.277       .  A
Ni767      Ni768   2.384       .  S
C769       C1144   1.492       .  S
C770       C2176   1.501       .  S
C771       C1168   1.493       .  S
C772       C2149   1.472       .  S
O773       Ni781   1.940       .  S
O773        C783   1.286       .  A
O774       Ni781   1.942       .  S
O774        C784   1.286       .  A
O775       Ni781   1.938       .  S
O775        C785   1.285       .  A
O776       Ni781   1.936       .  S
O776        C786   1.286       .  A
O777       Ni782   1.911       .  S
O777        C786   1.280       .  A
O778       Ni782   1.909       .  S
O778        C785   1.281       .  A
O779       Ni782   1.900       .  S
O779        C784   1.278       .  A
O780       Ni782   1.899       .  S
O780        C783   1.280       .  A
Ni781      Ni782   2.381       .  S
C783       C1957   1.497       .  S
C784       C1120   1.494       .  S
C785       C1984   1.498       .  S
C786       C1093   1.497       .  S
O787       Ni795   1.942       .  S
O787        C797   1.286       .  A
O788       Ni795   1.938       .  S
O788        C798   1.285       .  A
O789       Ni795   1.939       .  S
O789        C799   1.286       .  A
O790       Ni795   1.943       .  S
O790        C800   1.286       .  A
O791       Ni796   1.900       .  S
O791        C800   1.279       .  A
O792       Ni796   1.896       .  S
O792        C799   1.278       .  A
O793       Ni796   1.906       .  S
O793        C798   1.281       .  A
O794       Ni796   1.908       .  S
O794        C797   1.280       .  A
Ni795      Ni796   2.382       .  S
C797       C1285   1.500       .  S
C798       C1264   1.497       .  S
C799       C1309   1.495       .  S
C800       C1237   1.492       .  S
O801       Ni809   1.898       .  S
O801        C811   1.280       .  A
O802       Ni809   1.904       .  S
O802        C812   1.279       .  A
O803       Ni809   1.910       .  S
O803        C813   1.280       .  A
O804       Ni809   1.903       .  S
O804        C814   1.281       .  A
O805       Ni810   1.937       .  S
O805        C814   1.285       .  A
O806       Ni810   1.939       .  S
O806        C813   1.286       .  A
O807       Ni810   1.941       .  S
O807        C812   1.286       .  A
O808       Ni810   1.940       .  S
O808        C811   1.285       .  A
Ni809      Ni810   2.381       .  S
C811       C1480   1.493       .  S
C812       C1213   1.498       .  S
C813       C1501   1.501       .  S
C814       C1192   1.494       .  S
O815       Ni823   1.900       .  S
O815        C825   1.279       .  A
O816       Ni823   1.910   1_554  S
O816        C826   1.281       .  A
O817       Ni823   1.914   1_554  S
O817        C827   1.281       .  A
O818       Ni823   1.908       .  S
O818        C828   1.279       .  A
O819       Ni824   1.933       .  S
O819        C828   1.284       .  A
O820       Ni824   1.935       .  S
O820        C827   1.285   1_556  A
O821       Ni824   1.941       .  S
O821        C826   1.286   1_556  A
O822       Ni824   1.942       .  S
O822        C825   1.287       .  A
Ni823      Ni824   2.382       .  S
C825       C1612   1.499       .  S
C826       C1300   1.500       .  S
C827       C1561   1.499       .  S
C828       C1348   1.478       .  S
O829       Ni837   1.904       .  S
O829        C839   1.281       .  A
O830       Ni837   1.911       .  S
O830        C840   1.280       .  A
O831       Ni837   1.915       .  S
O831        C841   1.282       .  A
O832       Ni837   1.912       .  S
O832        C842   1.281       .  A
O833       Ni838   1.921       .  S
O833        C842   1.283       .  A
O834       Ni838   1.931       .  S
O834        C841   1.285       .  A
O835       Ni838   1.940       .  S
O835        C840   1.286       .  A
O836       Ni838   1.933       .  S
O836        C839   1.284       .  A
Ni837      Ni838   2.382       .  S
C839       C1336   1.492       .  S
C840       C1456   1.488       .  S
C841       C1357   1.496       .  S
C842       C1432   1.490       .  S
O843       Ni851   1.951       .  S
O843        C853   1.288       .  A
O844       Ni851   1.951   1_655  S
O844        C854   1.288       .  A
O845       Ni851   1.926   1_655  S
O845        C855   1.283       .  A
O846       Ni851   1.929       .  S
O846        C856   1.283       .  A
O847       Ni852   1.921       .  S
O847        C856   1.282       .  A
O848       Ni852   1.923   1_655  S
O848        C855   1.283       .  A
O849       Ni852   1.903   1_655  S
O849        C854   1.279       .  A
O850       Ni852   1.896       .  S
O850        C853   1.278       .  A
Ni851      Ni852   2.381       .  S
C853       C1396   1.496       .  S
C854       C1132   1.503       .  S
C855       C1444   1.499       .  S
C856       C1084   1.482       .  S
O857       Ni865   1.942       .  S
O857        C867   1.286       .  A
O858       Ni865   1.936       .  S
O858        C868   1.285       .  A
O859       Ni865   1.928       .  S
O859        C869   1.283       .  A
O860       Ni865   1.935       .  S
O860        C870   1.285       .  A
O861       Ni866   1.912       .  S
O861        C870   1.280       .  A
O862       Ni866   1.909       .  S
O862        C869   1.281       .  A
O863       Ni866   1.917       .  S
O863        C868   1.283       .  A
O864       Ni866   1.911       .  S
O864        C867   1.281       .  A
Ni865      Ni866   2.382       .  S
C867       C1528   1.500       .  S
C868       C1408   1.499       .  S
C869       C1552   1.494       .  S
C870       C1384   1.484       .  S
O871       Ni879   1.943       .  S
O871        C881   1.287       .  A
O872       Ni879   1.947       .  S
O872        C882   1.286       .  A
O873       Ni879   1.939       .  S
O873        C883   1.286       .  A
O874       Ni879   1.940       .  S
O874        C884   1.286       .  A
O875       Ni880   1.904       .  S
O875        C884   1.279       .  A
O876       Ni880   1.901       .  S
O876        C883   1.280       .  A
O877       Ni880   1.900       .  S
O877        C882   1.280       .  A
O878       Ni880   1.902       .  S
O878        C881   1.279       .  A
Ni879      Ni880   2.382       .  S
C881       C1636   1.495       .  S
C882       C1492   1.497   1_556  S
C883       C1588   1.496   1_556  S
C884       C1540   1.494       .  S
O885       Ni893   1.903       .  S
O885        C895   1.280       .  A
O886       Ni893   1.898       .  S
O886        C896   1.279       .  A
O887       Ni893   1.899       .  S
O887        C897   1.280       .  A
O888       Ni893   1.904       .  S
O888        C898   1.279       .  A
O889       Ni894   1.937       .  S
O889        C898   1.286       .  A
O890       Ni894   1.942       .  S
O890        C897   1.286       .  A
O891       Ni894   1.945       .  S
O891        C896   1.287       .  A
O892       Ni894   1.942       .  S
O892        C895   1.286       .  A
Ni893      Ni894   2.382       .  S
C895       C1624   1.494       .  S
C896       C1693   1.499       .  S
C897       C1648   1.496       .  S
C898       C1672   1.493       .  S
O899       Ni907   1.942       .  S
O899        C909   1.286       .  A
O900       Ni907   1.940       .  S
O900        C910   1.286       .  A
O901       Ni907   1.933       .  S
O901        C911   1.285       .  A
O902       Ni907   1.936       .  S
O902        C912   1.284       .  A
O903       Ni908   1.895       .  S
O903        C912   1.279       .  A
O904       Ni908   1.903       .  S
O904        C911   1.279       .  A
O905       Ni908   1.911       .  S
O905        C910   1.281       .  A
O906       Ni908   1.907       .  S
O906        C909   1.278       .  A
Ni907      Ni908   2.383       .  S
C909       C1573   1.485       .  S
C910       C1888   1.502       .  S
C911       C1600   1.494       .  S
C912       C1864   1.489       .  S
O913       Ni921   1.950       .  S
O913        C923   1.287       .  A
O914       Ni921   1.947       .  S
O914        C924   1.288   1_565  A
O915       Ni921   1.926       .  S
O915        C925   1.283   1_565  A
O916       Ni921   1.928       .  S
O916        C926   1.283       .  A
O917       Ni922   1.915       .  S
O917        C926   1.281       .  A
O918       Ni922   1.926       .  S
O918        C925   1.284   1_565  A
O919       Ni922   1.908       .  S
O919        C924   1.280   1_565  A
O920       Ni922   1.896       .  S
O920        C923   1.279       .  A
Ni921      Ni922   2.383       .  S
C923       C1732   1.494       .  S
C924       C1948   1.499       .  S
C925       C1681   1.503       .  S
C926       C1996   1.481       .  S
O927       Ni935   1.951       .  S
O927        C937   1.288       .  A
O928       Ni935   1.950       .  S
O928        C938   1.288       .  A
O929       Ni935   1.937       .  S
O929        C939   1.285       .  A
O930       Ni935   1.935       .  S
O930        C940   1.285       .  A
O931       Ni936   1.909       .  S
O931        C940   1.281       .  A
O932       Ni936   1.908       .  S
O932        C939   1.281       .  A
O933       Ni936   1.901       .  S
O933        C938   1.278       .  A
O934       Ni936   1.902       .  S
O934        C937   1.280       .  A
Ni935      Ni936   2.380       .  S
C937       C1816   1.501       .  S
C938       C1744   1.499       .  S
C939       C1840   1.496       .  S
C940       C1720   1.500       .  S
O941       Ni949   1.901       .  S
O941        C951   1.280       .  A
O942       Ni949   1.901   1_556  S
O942        C952   1.279       .  A
O943       Ni949   1.896   1_556  S
O943        C953   1.278       .  A
O944       Ni949   1.896       .  S
O944        C954   1.279       .  A
O945       Ni950   1.941   1_554  S
O945        C954   1.286       .  A
O946       Ni950   1.941       .  S
O946        C953   1.286       .  A
O947       Ni950   1.937       .  S
O947        C952   1.285       .  A
O948       Ni950   1.938   1_554  S
O948        C951   1.285       .  A
Ni949      Ni950   2.382   1_554  S
C951       C1468   1.493       .  S
C952       C1828   1.494       .  S
C953       C1516   1.494       .  S
C954       C1780   1.493       .  S
O955       Ni963   1.913       .  S
O955        C965   1.282       .  A
O956       Ni963   1.908       .  S
O956        C966   1.280       .  A
O957       Ni963   1.892       .  S
O957        C967   1.278       .  A
O958       Ni963   1.896       .  S
O958        C968   1.278       .  A
O959       Ni964   1.941       .  S
O959        C968   1.286       .  A
O960       Ni964   1.948       .  S
O960        C967   1.287       .  A
O961       Ni964   1.935       .  S
O961        C966   1.286       .  A
O962       Ni964   1.927       .  S
O962        C965   1.284       .  A
Ni963      Ni964   2.382       .  S
C965       C1765   1.495       .  S
C966       C1936   1.497       .  S
C967       C1789   1.494       .  S
C968       C1912   1.486       .  S
O969       Ni977   1.946   1_545  S
O969        C979   1.288       .  A
O970       Ni977   1.943       .  S
O970        C980   1.286       .  A
O971       Ni977   1.949       .  S
O971        C981   1.287       .  A
O972       Ni977   1.953   1_545  S
O972        C982   1.289       .  A
O973       Ni978   1.899   1_545  S
O973        C982   1.278       .  A
O974       Ni978   1.896       .  S
O974        C981   1.278       .  A
O975       Ni978   1.908       .  S
O975        C980   1.280       .  A
O976       Ni978   1.910   1_545  S
O976        C979   1.281       .  A
Ni977      Ni978   2.379       .  S
C979       C1876   1.507       .  S
C980       C2020   1.500       .  S
C981       C1921   1.493       .  S
C982       C1972   1.506       .  S
O983       Ni991   1.917       .  S
O983        C993   1.283       .  A
O984       Ni991   1.916       .  S
O984        C994   1.281       .  A
O985       Ni991   1.903       .  S
O985        C995   1.280       .  A
O986       Ni991   1.904       .  S
O986        C996   1.280       .  A
O987       Ni992   1.939       .  S
O987        C996   1.286       .  A
O988       Ni992   1.942       .  S
O988        C995   1.286       .  A
O989       Ni992   1.928       .  S
O989        C994   1.285       .  A
O990       Ni992   1.924       .  S
O990        C993   1.283       .  A
Ni991      Ni992   2.380       .  S
C993       C2005   1.496       .  S
C994       C2080   1.498       .  S
C995       C2032   1.500       .  S
C996       C2053   1.496       .  S
O997      Ni1005   1.941       .  S
O997       C1007   1.286       .  A
O998      Ni1005   1.934   1_655  S
O998       C1008   1.284       .  A
O999      Ni1005   1.929   1_655  S
O999       C1009   1.284       .  A
O1000     Ni1005   1.938       .  S
O1000      C1010   1.285       .  A
O1001     Ni1006   1.913       .  S
O1001      C1010   1.280       .  A
O1002     Ni1006   1.906       .  S
O1002      C1009   1.280   1_455  A
O1003     Ni1006   1.904       .  S
O1003      C1008   1.280   1_455  A
O1004     Ni1006   1.905       .  S
O1004      C1007   1.281       .  A
Ni1005    Ni1006   2.384       .  S
C1007      C1180   1.498       .  S
C1008      C2116   1.491       .  S
C1009      C1225   1.491       .  S
C1010      C2068   1.485       .  S
O1011     Ni1019   1.913       .  S
O1011      C1021   1.283       .  A
O1012     Ni1019   1.906       .  S
O1012      C1022   1.278       .  A
O1013     Ni1019   1.899       .  S
O1013      C1023   1.278       .  A
O1014     Ni1019   1.909       .  S
O1014      C1024   1.280       .  A
O1015     Ni1020   1.932       .  S
O1015      C1024   1.285       .  A
O1016     Ni1020   1.938       .  S
O1016      C1023   1.285       .  A
O1017     Ni1020   1.943       .  S
O1017      C1022   1.286       .  A
O1018     Ni1020   1.939       .  S
O1018      C1021   1.285       .  A
Ni1019    Ni1020   2.383       .  S
C1021      C2101   1.501       .  S
C1022      C2224   1.484       .  S
C1023      C2128   1.495       .  S
C1024      C2200   1.495       .  S
O1025     Ni1033   1.940       .  S
O1025      C1035   1.286       .  A
O1026     Ni1033   1.945       .  S
O1026      C1036   1.286       .  A
O1027     Ni1033   1.943       .  S
O1027      C1037   1.287       .  A
O1028     Ni1033   1.938       .  S
O1028      C1038   1.285       .  A
O1029     Ni1034   1.909       .  S
O1029      C1038   1.282       .  A
O1030     Ni1034   1.906       .  S
O1030      C1037   1.279       .  A
O1031     Ni1034   1.897       .  S
O1031      C1036   1.277       .  A
O1032     Ni1034   1.895       .  S
O1032      C1035   1.278       .  A
Ni1033    Ni1034   2.380       .  S
C1035      C2164   1.491   1_565  S
C1036      C1900   1.494       .  S
C1037      C2212   1.501       .  S
C1038      C1849   1.497   1_565  S
O1039     Ni1047   1.943       .  S
O1039      C1049   1.286       .  A
O1040     Ni1047   1.940   1_455  S
O1040      C1050   1.285       .  A
O1041     Ni1047   1.934   1_455  S
O1041      C1051   1.285       .  A
O1042     Ni1047   1.935       .  S
O1042      C1052   1.286       .  A
O1043     Ni1048   1.908       .  S
O1043      C1052   1.280       .  A
O1044     Ni1048   1.908   1_455  S
O1044      C1051   1.281       .  A
O1045     Ni1048   1.896   1_455  S
O1045      C1050   1.279       .  A
O1046     Ni1048   1.894       .  S
O1046      C1049   1.278       .  A
Ni1047    Ni1048   2.383       .  S
C1049      C1420   1.489       .  S
C1050      C2044   1.489       .  S
C1051      C1372   1.493       .  S
C1052      C2089   1.498       .  S
O1053     Ni1061   1.906       .  S
O1053      C1063   1.280       .  A
O1054     Ni1061   1.905       .  S
O1054      C1064   1.279   1_565  A
O1055     Ni1061   1.900       .  S
O1055      C1065   1.279   1_565  A
O1056     Ni1061   1.904       .  S
O1056      C1066   1.278       .  A
O1057     Ni1062   1.943       .  S
O1057      C1066   1.286       .  A
O1058     Ni1062   1.941   1_545  S
O1058      C1065   1.285       .  A
O1059     Ni1062   1.928   1_545  S
O1059      C1064   1.284       .  A
O1060     Ni1062   1.932       .  S
O1060      C1063   1.284       .  A
Ni1061    Ni1062   2.382       .  S
C1063      C1708   1.490       .  S
C1064      C2137   1.488       .  S
C1065      C1660   1.499       .  S
C1066      C2188   1.481       .  S
O1067     Ni1075   1.904       .  S
O1067      C1077   1.281       .  A
O1068     Ni1075   1.906       .  S
O1068      C1078   1.280       .  A
O1069     Ni1075   1.911       .  S
O1069      C1079   1.281       .  A
O1070     Ni1075   1.909       .  S
O1070      C1080   1.280       .  A
O1071     Ni1076   1.940       .  S
O1071      C1080   1.286       .  A
O1072     Ni1076   1.944       .  S
O1072      C1079   1.287       .  A
O1073     Ni1076   1.934       .  S
O1073      C1078   1.285       .  A
O1074     Ni1076   1.930       .  S
O1074      C1077   1.284       .  A
Ni1075    Ni1076   2.382       .  S
C1077      C1756   1.493       .  S
C1078      C1324   1.492       .  S
C1079      C1804   1.503       .  S
C1080      C1273   1.500       .  S
C1081      C1082   1.415       .  A
C1081      C1086   1.409       .  A
C1082      C1083   1.405       .  A
C1082      H1087   1.084       .  S
C1083      C1084   1.401       .  A
C1083      O1088   1.371       .  S
C1084      C1085   1.406       .  A
C1085      C1086   1.407       .  A
C1085      H1089   1.083       .  S
C1086      O1090   1.366       .  S
O1088      H1092   0.992       .  S
O1090      H1091   0.991       .  S
C1093      C1094   1.411       .  A
C1093      C1098   1.416       .  A
C1094      C1095   1.408       .  A
C1094      H1099   1.083       .  S
C1095      C1096   1.406       .  A
C1095      O1100   1.371       .  S
C1096      C1097   1.401       .  A
C1097      C1098   1.401       .  A
C1097      H1101   1.084       .  S
C1098      O1102   1.372       .  S
O1100      H1104   0.992       .  S
O1102      H1103   0.992       .  S
C1105      C1106   1.409       .  A
C1105      C1110   1.407       .  A
C1106      C1107   1.416       .  A
C1106      H1111   1.083       .  S
C1107      C1108   1.415       .  A
C1107      O1112   1.371       .  S
C1108      C1109   1.406       .  A
C1109      C1110   1.393       .  A
C1109      H1113   1.083       .  S
C1110      O1114   1.373       .  S
O1112      H1116   0.992       .  S
O1114      H1115   0.992       .  S
C1117      C1118   1.397       .  A
C1117      C1122   1.415       .  A
C1118      C1119   1.396       .  A
C1118      H1123   1.081       .  S
C1119      C1120   1.417       .  A
C1119      O1124   1.372       .  S
C1120      C1121   1.406       .  A
C1121      C1122   1.412       .  A
C1121      H1125   1.083       .  S
C1122      O1126   1.371       .  S
O1124      H1128   0.992       .  S
O1126      H1127   0.992       .  S
C1129      C1130   1.398       .  A
C1129      C1134   1.411       .  A
C1130      C1131   1.394       .  A
C1130      H1135   1.084       .  S
C1131      C1132   1.419       .  A
C1131      O1136   1.372       .  S
C1132      C1133   1.412       .  A
C1133      C1134   1.418       .  A
C1133      H1137   1.083       .  S
C1134      O1138   1.371       .  S
O1136      H1140   0.992   1_655  S
O1138      H1139   0.992       .  S
C1141      C1142   1.394       .  A
C1141      C1146   1.414       .  A
C1142      C1143   1.394       .  A
C1142      H1147   1.084       .  S
C1143      C1144   1.417       .  A
C1143      O1148   1.372       .  S
C1144      C1145   1.407       .  A
C1145      C1146   1.414       .  A
C1145      H1149   1.083       .  S
C1146      O1150   1.371       .  S
O1148      H1152   0.992       .  S
O1150      H1151   0.992       .  S
C1153      C1154   1.412       .  A
C1153      C1158   1.405       .  A
C1154      C1155   1.412       .  A
C1154      H1159   1.084       .  S
C1155      C1156   1.408       .  A
C1155      O1160   1.371       .  S
C1156      C1157   1.407       .  A
C1157      C1158   1.394       .  A
C1157      H1161   1.083       .  S
C1158      O1162   1.371       .  S
O1160      H1164   0.992       .  S
O1162      H1163   0.992       .  S
C1165      C1166   1.407       .  A
C1165      C1170   1.408       .  A
C1166      C1167   1.393       .  A
C1166      H1171   1.084       .  S
C1167      C1168   1.411       .  A
C1167      O1172   1.372       .  S
C1168      C1169   1.414       .  A
C1169      C1170   1.413       .  A
C1169      H1173   1.083       .  S
C1170      O1174   1.370       .  S
O1172      H1176   0.992       .  S
O1174      H1175   0.992       .  S
C1177      C1178   1.411       .  A
C1177      C1182   1.410       .  A
C1178      C1179   1.416       .  A
C1178      H1183   1.083       .  S
C1179      C1180   1.411       .  A
C1179      O1184   1.371       .  S
C1180      C1181   1.407       .  A
C1181      C1182   1.399       .  A
C1181      H1185   1.083       .  S
C1182      O1186   1.372       .  S
O1184      H1188   0.992       .  S
O1186      H1187   0.992       .  S
C1189      C1190   1.407       .  A
C1189      C1194   1.406       .  A
C1190      C1191   1.414       .  A
C1190      H1195   1.083       .  S
C1191      C1192   1.415       .  A
C1191      O1196   1.371       .  S
C1192      C1193   1.405       .  A
C1193      C1194   1.393       .  A
C1193      H1197   1.082       .  S
C1194      O1198   1.373       .  S
O1196      H1200   0.992       .  S
O1198      H1199   0.992       .  S
C1201      C1202   1.409       .  A
C1201      C1206   1.406       .  A
C1202      C1203   1.416       .  A
C1202      H1207   1.083       .  S
C1203      C1204   1.412       .  A
C1203      O1208   1.370       .  S
C1204      C1205   1.406       .  A
C1205      C1206   1.390       .  A
C1205      H1209   1.083   1_455  S
C1206      O1210   1.373       .  S
O1208      H1212   0.992       .  S
O1210      H1211   0.992       .  S
C1213      C1214   1.409       .  A
C1213      C1218   1.419       .  A
C1214      C1215   1.412       .  A
C1214      H1219   1.083       .  S
C1215      C1216   1.410       .  A
C1215      O1220   1.371       .  S
C1216      C1217   1.398       .  A
C1217      C1218   1.399       .  A
C1217      H1221   1.084       .  S
C1218      O1222   1.373       .  S
O1220      H1224   0.992       .  S
O1222      H1223   0.991       .  S
C1225      C1226   1.410       .  A
C1225      C1230   1.416       .  A
C1226      C1227   1.409       .  A
C1226      H1231   1.083       .  S
C1227      C1228   1.408       .  A
C1227      O1232   1.370       .  S
C1228      C1229   1.399       .  A
C1229      C1230   1.394       .  A
C1229      H1233   1.084       .  S
C1230      O1234   1.372   1_655  S
O1232      H1236   0.992       .  S
O1234      H1235   0.992   1_455  S
C1237      C1238   1.408       .  A
C1237      C1242   1.408       .  A
C1238      C1239   1.395       .  A
C1238      H1243   1.083       .  S
C1239      C1240   1.405       .  A
C1239      O1244   1.372       .  S
C1240      C1241   1.411       .  A
C1241      C1242   1.415       .  A
C1241      H1245   1.083       .  S
C1242      O1246   1.370       .  S
O1244      H1248   0.992       .  S
O1246      H1247   0.992       .  S
C1249      C1250   1.399       .  A
C1249      C1254   1.411       .  A
C1250      C1251   1.399       .  A
C1250      H1255   1.084       .  S
C1251      C1252   1.419       .  A
C1251      O1256   1.371       .  S
C1252      C1253   1.409       .  A
C1253      C1254   1.411       .  A
C1253      H1257   1.083       .  S
C1254      O1258   1.371       .  S
O1256      H1260   0.992       .  S
O1258      H1259   0.992       .  S
C1261      C1262   1.406       .  A
C1261      C1266   1.406       .  A
C1262      C1263   1.414       .  A
C1262      H1267   1.083       .  S
C1263      C1264   1.416       .  A
C1263      O1268   1.371       .  S
C1264      C1265   1.407       .  A
C1265      C1266   1.394       .  A
C1265      H1269   1.083       .  S
C1266      O1270   1.374       .  S
O1268      H1272   0.992       .  S
O1270      H1271   0.992       .  S
C1273      C1274   1.413   1_556  A
C1273      C1278   1.414       .  A
C1274      C1275   1.414       .  A
C1274      H1279   1.083       .  S
C1275      C1276   1.408       .  A
C1275      O1280   1.370       .  S
C1276      C1277   1.406   1_554  A
C1277      C1278   1.396       .  A
C1277      H1281   1.084       .  S
C1278      O1282   1.372       .  S
O1280      H1284   0.992       .  S
O1282      H1283   0.992       .  S
C1285      C1286   1.407       .  A
C1285      C1290   1.418       .  A
C1286      C1287   1.413       .  A
C1286      H1291   1.083       .  S
C1287      C1288   1.414       .  A
C1287      O1292   1.371       .  S
C1288      C1289   1.400       .  A
C1289      C1290   1.400       .  A
C1289      H1293   1.082       .  S
C1290      O1294   1.371       .  S
O1292      H1296   0.992       .  S
O1294      H1295   0.992       .  S
C1297      C1298   1.409       .  A
C1297      C1302   1.407       .  A
C1298      C1299   1.413       .  A
C1298      H1303   1.083       .  S
C1299      C1300   1.413       .  A
C1299      O1304   1.371       .  S
C1300      C1301   1.408       .  A
C1301      C1302   1.400       .  A
C1301      H1305   1.083       .  S
C1302      O1306   1.372       .  S
O1304      H1308   0.992       .  S
O1306      H1307   0.992       .  S
C1309      C1310   1.411       .  A
C1309      C1314   1.414       .  A
C1310      C1311   1.413       .  A
C1310      H1315   1.083       .  S
C1311      C1312   1.410       .  A
C1311      O1316   1.368       .  S
C1312      C1313   1.403       .  A
C1313      C1314   1.393       .  A
C1313      H1317   1.084       .  S
C1314      O1318   1.373       .  S
O1316      H1320   0.992       .  S
O1318      H1319   0.991       .  S
C1321      C1322   1.399       .  A
C1321      C1326   1.412       .  A
C1322      C1323   1.398       .  A
C1322      H1327   1.083       .  S
C1323      C1324   1.417       .  A
C1323      O1328   1.372       .  S
C1324      C1325   1.405       .  A
C1325      C1326   1.410       .  A
C1325      H1329   1.083       .  S
C1326      O1330   1.371       .  S
O1328      H1332   0.992       .  S
O1330      H1331   0.992       .  S
C1333      C1334   1.404       .  A
C1333      C1338   1.409       .  A
C1334      C1335   1.411       .  A
C1334      H1339   1.083       .  S
C1335      C1336   1.416       .  A
C1335      O1340   1.370       .  S
C1336      C1337   1.406       .  A
C1337      C1338   1.394       .  A
C1337      H1341   1.083       .  S
C1338      O1342   1.374       .  S
O1340      H1344   0.992       .  S
O1342      H1343   0.992       .  S
C1345      C1346   1.414       .  A
C1345      C1350   1.412       .  A
C1346      C1347   1.401       .  A
C1346      H1351   1.083       .  S
C1347      C1348   1.401       .  A
C1347      O1352   1.372       .  S
C1348      C1349   1.407       .  A
C1349      C1350   1.408       .  A
C1349      H1353   1.084       .  S
C1350      O1354   1.367       .  S
O1352      H1356   0.992       .  S
O1354      H1355   0.992       .  S
C1357      C1358   1.407       .  A
C1357      C1362   1.418       .  A
C1358      C1359   1.408       .  A
C1358      H1363   1.083       .  S
C1359      C1360   1.412       .  A
C1359      O1364   1.371       .  S
C1360      C1361   1.401       .  A
C1361      C1362   1.403       .  A
C1361      H1365   1.082       .  S
C1362      O1366   1.372       .  S
O1364      H1368   0.992       .  S
O1366      H1367   0.992       .  S
C1369      C1370   1.407       .  A
C1369      C1374   1.405       .  A
C1370      C1371   1.409       .  A
C1370      H1375   1.084       .  S
C1371      C1372   1.412       .  A
C1371      O1376   1.371       .  S
C1372      C1373   1.409       .  A
C1373      C1374   1.401       .  A
C1373      H1377   1.083       .  S
C1374      O1378   1.373       .  S
O1376      H1380   0.992       .  S
O1378      H1379   0.991       .  S
C1381      C1382   1.414       .  A
C1381      C1386   1.408       .  A
C1382      C1383   1.404       .  A
C1382      H1387   1.084       .  S
C1383      C1384   1.404       .  A
C1383      O1388   1.372       .  S
C1384      C1385   1.409       .  A
C1385      C1386   1.409       .  A
C1385      H1389   1.083       .  S
C1386      O1390   1.368       .  S
O1388      H1392   0.992       .  S
O1390      H1391   0.992       .  S
C1393      C1394   1.413       .  A
C1393      C1398   1.405       .  A
C1394      C1395   1.416       .  A
C1394      H1399   1.083       .  S
C1395      C1396   1.410       .  A
C1395      O1400   1.371       .  S
C1396      C1397   1.408       .  A
C1397      C1398   1.397       .  A
C1397      H1401   1.084       .  S
C1398      O1402   1.372       .  S
O1400      H1404   0.992       .  S
O1402      H1403   0.993       .  S
C1405      C1406   1.405       .  A
C1405      C1410   1.409       .  A
C1406      C1407   1.412       .  A
C1406      H1411   1.083       .  S
C1407      C1408   1.416       .  A
C1407      O1412   1.371       .  S
C1408      C1409   1.407       .  A
C1409      C1410   1.399       .  A
C1409      H1413   1.083       .  S
C1410      O1414   1.372       .  S
O1412      H1416   0.992       .  S
O1414      H1415   0.992       .  S
C1417      C1418   1.410       .  A
C1417      C1422   1.404       .  A
C1418      C1419   1.413       .  A
C1418      H1423   1.084       .  S
C1419      C1420   1.410       .  A
C1419      O1424   1.371       .  S
C1420      C1421   1.407       .  A
C1421      C1422   1.393       .  A
C1421      H1425   1.084       .  S
C1422      O1426   1.373       .  S
O1424      H1428   0.992       .  S
O1426      H1427   0.992       .  S
C1429      C1430   1.399       .  A
C1429      C1434   1.405       .  A
C1430      C1431   1.395       .  A
C1430      H1435   1.083       .  S
C1431      C1432   1.414       .  A
C1431      O1436   1.371       .  S
C1432      C1433   1.410       .  A
C1433      C1434   1.405       .  A
C1433      H1437   1.083       .  S
C1434      O1438   1.372       .  S
O1436      H1440   0.992       .  S
O1438      H1439   0.992       .  S
C1441      C1442   1.404       .  A
C1441      C1446   1.409       .  A
C1442      C1443   1.408       .  A
C1442      H1447   1.084       .  S
C1443      C1444   1.416       .  A
C1443      O1448   1.371       .  S
C1444      C1445   1.409       .  A
C1445      C1446   1.403       .  A
C1445      H1449   1.083       .  S
C1446      O1450   1.371       .  S
O1448      H1452   0.992       .  S
O1450      H1451   0.992       .  S
C1453      C1454   1.402       .  A
C1453      C1458   1.417       .  A
C1454      C1455   1.411       .  A
C1454      H1459   1.082       .  S
C1455      C1456   1.416       .  A
C1455      O1460   1.369       .  S
C1456      C1457   1.399       .  A
C1457      C1458   1.404       .  A
C1457      H1461   1.084       .  S
C1458      O1462   1.374       .  S
O1460      H1464   0.991       .  S
O1462      H1463   0.992       .  S
C1465      C1466   1.409       .  A
C1465      C1470   1.406       .  A
C1466      C1467   1.412       .  A
C1466      H1471   1.083       .  S
C1467      C1468   1.412       .  A
C1467      O1472   1.371       .  S
C1468      C1469   1.407       .  A
C1469      C1470   1.396       .  A
C1469      H1473   1.083       .  S
C1470      O1474   1.373       .  S
O1472      H1476   0.992       .  S
O1474      H1475   0.992       .  S
C1477      C1478   1.408       .  A
C1477      C1482   1.407       .  A
C1478      C1479   1.415       .  A
C1478      H1483   1.083       .  S
C1479      C1480   1.414       .  A
C1479      O1484   1.371       .  S
C1480      C1481   1.406       .  A
C1481      C1482   1.391       .  A
C1481      H1485   1.083       .  S
C1482      O1486   1.374       .  S
O1484      H1488   0.992       .  S
O1486      H1487   0.992       .  S
C1489      C1490   1.411       .  A
C1489      C1494   1.403   1_554  A
C1490      C1491   1.419       .  A
C1490      H1495   1.083       .  S
C1491      C1492   1.415       .  A
C1491      O1496   1.371       .  S
C1492      C1493   1.406   1_554  A
C1493      C1494   1.390       .  A
C1493      H1497   1.082       .  S
C1494      O1498   1.372       .  S
O1496      H1500   0.992       .  S
O1498      H1499   0.992       .  S
C1501      C1502   1.410       .  A
C1501      C1506   1.418       .  A
C1502      C1503   1.412       .  A
C1502      H1507   1.083       .  S
C1503      C1504   1.410       .  A
C1503      O1508   1.371       .  S
C1504      C1505   1.401       .  A
C1505      C1506   1.401       .  A
C1505      H1509   1.084       .  S
C1506      O1510   1.372       .  S
O1508      H1512   0.992       .  S
O1510      H1511   0.991       .  S
C1513      C1514   1.397       .  A
C1513      C1518   1.410       .  A
C1514      C1515   1.391       .  A
C1514      H1519   1.084       .  S
C1515      C1516   1.418       .  A
C1515      O1520   1.372       .  S
C1516      C1517   1.410       .  A
C1517      C1518   1.413       .  A
C1517      H1521   1.083       .  S
C1518      O1522   1.370       .  S
O1520      H1524   0.992       .  S
O1522      H1523   0.992       .  S
C1525      C1526   1.398       .  A
C1525      C1530   1.414       .  A
C1526      C1527   1.398       .  A
C1526      H1531   1.082       .  S
C1527      C1528   1.417       .  A
C1527      O1532   1.371       .  S
C1528      C1529   1.408       .  A
C1529      C1530   1.413       .  A
C1529      H1533   1.083       .  S
C1530      O1534   1.371       .  S
O1532      H1536   0.992       .  S
O1534      H1535   0.992       .  S
C1537      C1538   1.397       .  A
C1537      C1542   1.412       .  A
C1538      C1539   1.396       .  A
C1538      H1543   1.084       .  S
C1539      C1540   1.418       .  A
C1539      O1544   1.371       .  S
C1540      C1541   1.407       .  A
C1541      C1542   1.411       .  A
C1541      H1545   1.083       .  S
C1542      O1546   1.372       .  S
O1544      H1548   0.992       .  S
O1546      H1547   0.992       .  S
C1549      C1550   1.403       .  A
C1549      C1554   1.407       .  A
C1550      C1551   1.394       .  A
C1550      H1555   1.084       .  S
C1551      C1552   1.415       .  A
C1551      O1556   1.372       .  S
C1552      C1553   1.412       .  A
C1553      C1554   1.411       .  A
C1553      H1557   1.083       .  S
C1554      O1558   1.370       .  S
O1556      H1560   0.992       .  S
O1558      H1559   0.992       .  S
C1561      C1562   1.409       .  A
C1561      C1566   1.419       .  A
C1562      C1563   1.411       .  A
C1562      H1567   1.083       .  S
C1563      C1564   1.410       .  A
C1563      O1568   1.371       .  S
C1564      C1565   1.400       .  A
C1565      C1566   1.402       .  A
C1565      H1569   1.084       .  S
C1566      O1570   1.371       .  S
O1568      H1572   0.992       .  S
O1570      H1571   0.991   1_554  S
C1573      C1574   1.399       .  A
C1573      C1578   1.414       .  A
C1574      C1575   1.404       .  A
C1574      H1579   1.084       .  S
C1575      C1576   1.418       .  A
C1575      O1580   1.374       .  S
C1576      C1577   1.403       .  A
C1577      C1578   1.409       .  A
C1577      H1581   1.081       .  S
C1578      O1582   1.369       .  S
O1580      H1584   0.992       .  S
O1582      H1583   0.992       .  S
C1585      C1586   1.407       .  A
C1585      C1590   1.406   1_554  A
C1586      C1587   1.414       .  A
C1586      H1591   1.083       .  S
C1587      C1588   1.415       .  A
C1587      O1592   1.371       .  S
C1588      C1589   1.407   1_554  A
C1589      C1590   1.394       .  A
C1589      H1593   1.083       .  S
C1590      O1594   1.373       .  S
O1592      H1596   0.992       .  S
O1594      H1595   0.992   1_556  S
C1597      C1598   1.399       .  A
C1597      C1602   1.408       .  A
C1598      C1599   1.395       .  A
C1598      H1603   1.082       .  S
C1599      C1600   1.416       .  A
C1599      O1604   1.372       .  S
C1600      C1601   1.410       .  A
C1601      C1602   1.409       .  A
C1601      H1605   1.083       .  S
C1602      O1606   1.372       .  S
O1604      H1608   0.992       .  S
O1606      H1607   0.992       .  S
C1609      C1610   1.401       .  A
C1609      C1614   1.408       .  A
C1610      C1611   1.393       .  A
C1610      H1615   1.085       .  S
C1611      C1612   1.416       .  A
C1611      O1616   1.372       .  S
C1612      C1613   1.413       .  A
C1613      C1614   1.415       .  A
C1613      H1617   1.083       .  S
C1614      O1618   1.370       .  S
O1616      H1620   0.992       .  S
O1618      H1619   0.992       .  S
C1621      C1622   1.410       .  A
C1621      C1626   1.406       .  A
C1622      C1623   1.414       .  A
C1622      H1627   1.083       .  S
C1623      C1624   1.412       .  A
C1623      O1628   1.371       .  S
C1624      C1625   1.407       .  A
C1625      C1626   1.395       .  A
C1625      H1629   1.083       .  S
C1626      O1630   1.372       .  S
O1628      H1632   0.992       .  S
O1630      H1631   0.992       .  S
C1633      C1634   1.397       .  A
C1633      C1638   1.414       .  A
C1634      C1635   1.397       .  A
C1634      H1639   1.082       .  S
C1635      C1636   1.418       .  A
C1635      O1640   1.372       .  S
C1636      C1637   1.406       .  A
C1637      C1638   1.412       .  A
C1637      H1641   1.083       .  S
C1638      O1642   1.371       .  S
O1640      H1644   0.992       .  S
O1642      H1643   0.992       .  S
C1645      C1646   1.408       .  A
C1645      C1650   1.404       .  A
C1646      C1647   1.416       .  A
C1646      H1651   1.083       .  S
C1647      C1648   1.415       .  A
C1647      O1652   1.371       .  S
C1648      C1649   1.408       .  A
C1649      C1650   1.392       .  A
C1649      H1653   1.083       .  S
C1650      O1654   1.372       .  S
O1652      H1656   0.992       .  S
O1654      H1655   0.991       .  S
C1657      C1658   1.402       .  A
C1657      C1662   1.411       .  A
C1658      C1659   1.389       .  A
C1658      H1663   1.084       .  S
C1659      C1660   1.414       .  A
C1659      O1664   1.372       .  S
C1660      C1661   1.414       .  A
C1661      C1662   1.418       .  A
C1661      H1665   1.083       .  S
C1662      O1666   1.369       .  S
O1664      H1668   0.992       .  S
O1666      H1667   0.992       .  S
C1669      C1670   1.398       .  A
C1669      C1674   1.412       .  A
C1670      C1671   1.397       .  A
C1670      H1675   1.082       .  S
C1671      C1672   1.417       .  A
C1671      O1676   1.372       .  S
C1672      C1673   1.406       .  A
C1673      C1674   1.410       .  A
C1673      H1677   1.083       .  S
C1674      O1678   1.371       .  S
O1676      H1680   0.992       .  S
O1678      H1679   0.991       .  S
C1681      C1682   1.413       .  A
C1681      C1686   1.415       .  A
C1682      C1683   1.411       .  A
C1682      H1687   1.083       .  S
C1683      C1684   1.408       .  A
C1683      O1688   1.372       .  S
C1684      C1685   1.404       .  A
C1685      C1686   1.402       .  A
C1685      H1689   1.084       .  S
C1686      O1690   1.371       .  S
O1688      H1692   0.992       .  S
O1690      H1691   0.992       .  S
C1693      C1694   1.407       .  A
C1693      C1698   1.415       .  A
C1694      C1695   1.393       .  A
C1694      H1699   1.083       .  S
C1695      C1696   1.407       .  A
C1695      O1700   1.373       .  S
C1696      C1697   1.409       .  A
C1697      C1698   1.417       .  A
C1697      H1701   1.083       .  S
C1698      O1702   1.371       .  S
O1700      H1704   0.992       .  S
O1702      H1703   0.992       .  S
C1705      C1706   1.398       .  A
C1705      C1710   1.412       .  A
C1706      C1707   1.395       .  A
C1706      H1711   1.083       .  S
C1707      C1708   1.415       .  A
C1707      O1712   1.371       .  S
C1708      C1709   1.406       .  A
C1709      C1710   1.410       .  A
C1709      H1713   1.083       .  S
C1710      O1714   1.371       .  S
O1712      H1716   0.992       .  S
O1714      H1715   0.992       .  S
C1717      C1718   1.400       .  A
C1717      C1722   1.410       .  A
C1718      C1719   1.396       .  A
C1718      H1723   1.084       .  S
C1719      C1720   1.416       .  A
C1719      O1724   1.371       .  S
C1720      C1721   1.412       .  A
C1721      C1722   1.413       .  A
C1721      H1725   1.083       .  S
C1722      O1726   1.371       .  S
O1724      H1728   0.992       .  S
O1726      H1727   0.992       .  S
C1729      C1730   1.411       .  A
C1729      C1734   1.406       .  A
C1730      C1731   1.419       .  A
C1730      H1735   1.083       .  S
C1731      C1732   1.412       .  A
C1731      O1736   1.370       .  S
C1732      C1733   1.406       .  A
C1733      C1734   1.391       .  A
C1733      H1737   1.083       .  S
C1734      O1738   1.373       .  S
O1736      H1740   0.992       .  S
O1738      H1739   0.992       .  S
C1741      C1742   1.396       .  A
C1741      C1746   1.415       .  A
C1742      C1743   1.396       .  A
C1742      H1747   1.083       .  S
C1743      C1744   1.419       .  A
C1743      O1748   1.371       .  S
C1744      C1745   1.407       .  A
C1745      C1746   1.414       .  A
C1745      H1749   1.083       .  S
C1746      O1750   1.371       .  S
O1748      H1752   0.992       .  S
O1750      H1751   0.992       .  S
C1753      C1754   1.404       .  A
C1753      C1758   1.407   1_554  A
C1754      C1755   1.410       .  A
C1754      H1759   1.084       .  S
C1755      C1756   1.417   1_554  A
C1755      O1760   1.371       .  S
C1756      C1757   1.406       .  A
C1757      C1758   1.394       .  A
C1757      H1761   1.083       .  S
C1758      O1762   1.374       .  S
O1760      H1764   0.993   1_554  S
O1762      H1763   0.992       .  S
C1765      C1766   1.407       .  A
C1765      C1770   1.415       .  A
C1766      C1767   1.398       .  A
C1766      H1771   1.083       .  S
C1767      C1768   1.408       .  A
C1767      O1772   1.372       .  S
C1768      C1769   1.406       .  A
C1769      C1770   1.410       .  A
C1769      H1773   1.084       .  S
C1770      O1774   1.371       .  S
O1772      H1776   0.992       .  S
O1774      H1775   0.992       .  S
C1777      C1778   1.411       .  A
C1777      C1782   1.405       .  A
C1778      C1779   1.413       .  A
C1778      H1783   1.083       .  S
C1779      C1780   1.411       .  A
C1779      O1784   1.371       .  S
C1780      C1781   1.408       .  A
C1781      C1782   1.395       .  A
C1781      H1785   1.083       .  S
C1782      O1786   1.373       .  S
O1784      H1788   0.992       .  S
O1786      H1787   0.992       .  S
C1789      C1790   1.407       .  A
C1789      C1794   1.413       .  A
C1790      C1791   1.389       .  A
C1790      H1795   1.083       .  S
C1791      C1792   1.403       .  A
C1791      O1796   1.374       .  S
C1792      C1793   1.410       .  A
C1793      C1794   1.418       .  A
C1793      H1797   1.083       .  S
C1794      O1798   1.370       .  S
O1796      H1800   0.992       .  S
O1798      H1799   0.991       .  S
C1801      C1802   1.399       .  A
C1801      C1806   1.416       .  A
C1802      C1803   1.401       .  A
C1802      H1807   1.083       .  S
C1803      C1804   1.419       .  A
C1803      O1808   1.372       .  S
C1804      C1805   1.408       .  A
C1805      C1806   1.415       .  A
C1805      H1809   1.083       .  S
C1806      O1810   1.372       .  S
O1808      H1812   0.992       .  S
O1810      H1811   0.992       .  S
C1813      C1814   1.409       .  A
C1813      C1818   1.408       .  A
C1814      C1815   1.418       .  A
C1814      H1819   1.083       .  S
C1815      C1816   1.415       .  A
C1815      O1820   1.370       .  S
C1816      C1817   1.408       .  A
C1817      C1818   1.394       .  A
C1817      H1821   1.083       .  S
C1818      O1822   1.372       .  S
O1820      H1824   0.992       .  S
O1822      H1823   0.989       .  S
C1825      C1826   1.399       .  A
C1825      C1830   1.411       .  A
C1826      C1827   1.393       .  A
C1826      H1831   1.083       .  S
C1827      C1828   1.416       .  A
C1827      O1832   1.372       .  S
C1828      C1829   1.409       .  A
C1829      C1830   1.411       .  A
C1829      H1833   1.083       .  S
C1830      O1834   1.371       .  S
O1832      H1836   0.992       .  S
O1834      H1835   0.991       .  S
C1837      C1838   1.409       .  A
C1837      C1842   1.404       .  A
C1838      C1839   1.413       .  A
C1838      H1843   1.083       .  S
C1839      C1840   1.413       .  A
C1839      O1844   1.371       .  S
C1840      C1841   1.408       .  A
C1841      C1842   1.398       .  A
C1841      H1845   1.083       .  S
C1842      O1846   1.373       .  S
O1844      H1848   0.992       .  S
O1846      H1847   0.972       .  S
C1849      C1850   1.406       .  A
C1849      C1854   1.416       .  A
C1850      C1851   1.394       .  A
C1850      H1855   1.082       .  S
C1851      C1852   1.406       .  A
C1851      O1856   1.373       .  S
C1852      C1853   1.405       .  A
C1853      C1854   1.414       .  A
C1853      H1857   1.083       .  S
C1854      O1858   1.371       .  S
O1856      H1860   0.992   1_545  S
O1858      H1859   0.992       .  S
C1861      C1862   1.409       .  A
C1861      C1866   1.404       .  A
C1862      C1863   1.414       .  A
C1862      H1867   1.083       .  S
C1863      C1864   1.412       .  A
C1863      O1868   1.371       .  S
C1864      C1865   1.406       .  A
C1865      C1866   1.390       .  A
C1865      H1869   1.083       .  S
C1866      O1870   1.373       .  S
O1868      H1872   0.992       .  S
O1870      H1871   0.992       .  S
C1873      C1874   1.402       .  A
C1873      C1878   1.411       .  A
C1874      C1875   1.398       .  A
C1874      H1879   1.084       .  S
C1875      C1876   1.417       .  A
C1875      O1880   1.372       .  S
C1876      C1877   1.414       .  A
C1877      C1878   1.417       .  A
C1877      H1881   1.083       .  S
C1878      O1882   1.371       .  S
O1880      H1884   0.992       .  S
O1882      H1883   0.992       .  S
C1885      C1886   1.400       .  A
C1885      C1890   1.412       .  A
C1886      C1887   1.398       .  A
C1886      H1891   1.084       .  S
C1887      C1888   1.417       .  A
C1887      O1892   1.372       .  S
C1888      C1889   1.410       .  A
C1889      C1890   1.414       .  A
C1889      H1893   1.083       .  S
C1890      O1894   1.371       .  S
O1892      H1896   0.992       .  S
O1894      H1895   0.992       .  S
C1897      C1898   1.395       .  A
C1897      C1902   1.413       .  A
C1898      C1899   1.391       .  A
C1898      H1903   1.085       .  S
C1899      C1900   1.417       .  A
C1899      O1904   1.371       .  S
C1900      C1901   1.409       .  A
C1901      C1902   1.416       .  A
C1901      H1905   1.083       .  S
C1902      O1906   1.371       .  S
O1904      H1908   0.992       .  S
O1906      H1907   0.992       .  S
C1909      C1910   1.395       .  A
C1909      C1914   1.414       .  A
C1910      C1911   1.391       .  A
C1910      H1915   1.080       .  S
C1911      C1912   1.415       .  A
C1911      O1916   1.372       .  S
C1912      C1913   1.404       .  A
C1913      C1914   1.412       .  A
C1913      H1917   1.083       .  S
C1914      O1918   1.371       .  S
O1916      H1920   0.992       .  S
O1918      H1919   0.992       .  S
C1921      C1922   1.406       .  A
C1921      C1926   1.409       .  A
C1922      C1923   1.393       .  A
C1922      H1927   1.083       .  S
C1923      C1924   1.406       .  A
C1923      O1928   1.372       .  S
C1924      C1925   1.412       .  A
C1925      C1926   1.417       .  A
C1925      H1929   1.083       .  S
C1926      O1930   1.370       .  S
O1928      H1932   0.992       .  S
O1930      H1931   0.992       .  S
C1933      C1934   1.404       .  A
C1933      C1938   1.407       .  A
C1934      C1935   1.397       .  A
C1934      H1939   1.084       .  S
C1935      C1936   1.413       .  A
C1935      O1940   1.372       .  S
C1936      C1937   1.413       .  A
C1937      C1938   1.413       .  A
C1937      H1941   1.083       .  S
C1938      O1942   1.371       .  S
O1940      H1944   0.992       .  S
O1942      H1943   0.991       .  S
C1945      C1946   1.402       .  A
C1945      C1950   1.412       .  A
C1946      C1947   1.401       .  A
C1946      H1951   1.082       .  S
C1947      C1948   1.417       .  A
C1947      O1952   1.372   1_545  S
C1948      C1949   1.406       .  A
C1949      C1950   1.412       .  A
C1949      H1953   1.083       .  S
C1950      O1954   1.371       .  S
O1952      H1956   0.992       .  S
O1954      H1955   0.992       .  S
C1957      C1958   1.407       .  A
C1957      C1962   1.418       .  A
C1958      C1959   1.392       .  A
C1958      H1963   1.083       .  S
C1959      C1960   1.408       .  A
C1959      O1964   1.372       .  S
C1960      C1961   1.406       .  A
C1961      C1962   1.415       .  A
C1961      H1965   1.083       .  S
C1962      O1966   1.371       .  S
O1964      H1968   0.992       .  S
O1966      H1967   0.992       .  S
C1969      C1970   1.400       .  A
C1969      C1974   1.411       .  A
C1970      C1971   1.394       .  A
C1970      H1975   1.085       .  S
C1971      C1972   1.419       .  A
C1971      O1976   1.372       .  S
C1972      C1973   1.413       .  A
C1973      C1974   1.419       .  A
C1973      H1977   1.083       .  S
C1974      O1978   1.370       .  S
O1976      H1980   0.992       .  S
O1978      H1979   0.991       .  S
C1981      C1982   1.398       .  A
C1981      C1986   1.413       .  A
C1982      C1983   1.397       .  A
C1982      H1987   1.083       .  S
C1983      C1984   1.417       .  A
C1983      O1988   1.372       .  S
C1984      C1985   1.409       .  A
C1985      C1986   1.413       .  A
C1985      H1989   1.083       .  S
C1986      O1990   1.371       .  S
O1988      H1992   0.992       .  S
O1990      H1991   0.992       .  S
C1993      C1994   1.415       .  A
C1993      C1998   1.410       .  A
C1994      C1995   1.401       .  A
C1994      H1999   1.084       .  S
C1995      C1996   1.400       .  A
C1995      O2000   1.372       .  S
C1996      C1997   1.409       .  A
C1997      C1998   1.411       .  A
C1997      H2001   1.084       .  S
C1998      O2002   1.368       .  S
O2000      H2004   0.992       .  S
O2002      H2003   0.991       .  S
C2005      C2006   1.408       .  A
C2005      C2010   1.416       .  A
C2006      C2007   1.403       .  A
C2006      H2011   1.083       .  S
C2007      C2008   1.407       .  A
C2007      O2012   1.373       .  S
C2008      C2009   1.403       .  A
C2009      C2010   1.407       .  A
C2009      H2013   1.084       .  S
C2010      O2014   1.371       .  S
O2012      H2016   0.992       .  S
O2014      H2015   0.992       .  S
C2017      C2018   1.398       .  A
C2017      C2022   1.412       .  A
C2018      C2019   1.396       .  A
C2018      H2023   1.083       .  S
C2019      C2020   1.417       .  A
C2019      O2024   1.371       .  S
C2020      C2021   1.409       .  A
C2021      C2022   1.415       .  A
C2021      H2025   1.083       .  S
C2022      O2026   1.371       .  S
O2024      H2028   0.992       .  S
O2026      H2027   0.992       .  S
C2029      C2030   1.400       .  A
C2029      C2034   1.411       .  A
C2030      C2031   1.395       .  A
C2030      H2035   1.084       .  S
C2031      C2032   1.417       .  A
C2031      O2036   1.372       .  S
C2032      C2033   1.412       .  A
C2033      C2034   1.415       .  A
C2033      H2037   1.083       .  S
C2034      O2038   1.371       .  S
O2036      H2040   0.992       .  S
O2038      H2039   0.992       .  S
C2041      C2042   1.409       .  A
C2041      C2046   1.406       .  A
C2042      C2043   1.415       .  A
C2042      H2047   1.083       .  S
C2043      C2044   1.411       .  A
C2043      O2048   1.371       .  S
C2044      C2045   1.405       .  A
C2045      C2046   1.390       .  A
C2045      H2049   1.083       .  S
C2046      O2050   1.373       .  S
O2048      H2052   0.992       .  S
O2050      H2051   0.992       .  S
C2053      C2054   1.407       .  A
C2053      C2058   1.413       .  A
C2054      C2055   1.398       .  A
C2054      H2059   1.083       .  S
C2055      C2056   1.408       .  A
C2055      O2060   1.373       .  S
C2056      C2057   1.408       .  A
C2057      C2058   1.412       .  A
C2057      H2061   1.083       .  S
C2058      O2062   1.371       .  S
O2060      H2064   0.992       .  S
O2062      H2063   0.992       .  S
C2065      C2066   1.402       .  A
C2065      C2070   1.419       .  A
C2066      C2067   1.408       .  A
C2066      H2071   1.081       .  S
C2067      C2068   1.414       .  A
C2067      O2072   1.369       .  S
C2068      C2069   1.398       .  A
C2069      C2070   1.405       .  A
C2069      H2073   1.084       .  S
C2070      O2074   1.375       .  S
O2072      H2076   0.991       .  S
O2074      H2075   0.992       .  S
C2077      C2078   1.401       .  A
C2077      C2082   1.409       .  A
C2078      C2079   1.403       .  A
C2078      H2083   1.084       .  S
C2079      C2080   1.417       .  A
C2079      O2084   1.372       .  S
C2080      C2081   1.409       .  A
C2081      C2082   1.407       .  A
C2081      H2085   1.083       .  S
C2082      O2086   1.372       .  S
O2084      H2088   0.991       .  S
O2086      H2087   0.992       .  S
C2089      C2090   1.409       .  A
C2089      C2094   1.418       .  A
C2090      C2091   1.411       .  A
C2090      H2095   1.083       .  S
C2091      C2092   1.411       .  A
C2091      O2096   1.371       .  S
C2092      C2093   1.400       .  A
C2093      C2094   1.398       .  A
C2093      H2097   1.084       .  S
C2094      O2098   1.371       .  S
O2096      H2100   0.992       .  S
O2098      H2099   0.992       .  S
C2101      C2102   1.406       .  A
C2101      C2106   1.417       .  A
C2102      C2103   1.395       .  A
C2102      H2107   1.082       .  S
C2103      C2104   1.409       .  A
C2103      O2108   1.373       .  S
C2104      C2105   1.407       .  A
C2105      C2106   1.417       .  A
C2105      H2109   1.083       .  S
C2106      O2110   1.371       .  S
O2108      H2112   0.992       .  S
O2110      H2111   0.992       .  S
C2113      C2114   1.403       .  A
C2113      C2118   1.406       .  A
C2114      C2115   1.409       .  A
C2114      H2119   1.084       .  S
C2115      C2116   1.416       .  A
C2115      O2120   1.371       .  S
C2116      C2117   1.405       .  A
C2117      C2118   1.393       .  A
C2117      H2121   1.083       .  S
C2118      O2122   1.374       .  S
O2120      H2124   0.992       .  S
O2122      H2123   0.992       .  S
C2125      C2126   1.397       .  A
C2125      C2130   1.410       .  A
C2126      C2127   1.393       .  A
C2126      H2131   1.084       .  S
C2127      C2128   1.418       .  A
C2127      O2132   1.372       .  S
C2128      C2129   1.410       .  A
C2129      C2130   1.413       .  A
C2129      H2133   1.083       .  S
C2130      O2134   1.371       .  S
O2132      H2136   0.992       .  S
O2134      H2135   0.992       .  S
C2137      C2138   1.407       .  A
C2137      C2142   1.417       .  A
C2138      C2139   1.403       .  A
C2138      H2143   1.083       .  S
C2139      C2140   1.408       .  A
C2139      O2144   1.371       .  S
C2140      C2141   1.398       .  A
C2141      C2142   1.396       .  A
C2141      H2145   1.081       .  S
C2142      O2146   1.372   1_545  S
O2144      H2148   0.992       .  S
O2146      H2147   0.992   1_565  S
C2149      C2150   1.407       .  A
C2149      C2154   1.402       .  A
C2150      C2151   1.403       .  A
C2150      H2155   1.084       .  S
C2151      C2152   1.406       .  A
C2151      O2156   1.368       .  S
C2152      C2153   1.410       .  A
C2153      C2154   1.400       .  A
C2153      H2157   1.084       .  S
C2154      O2158   1.372       .  S
O2156      H2160   0.991       .  S
O2158      H2159   0.992       .  S
C2161      C2162   1.408       .  A
C2161      C2166   1.405       .  A
C2162      C2163   1.412       .  A
C2162      H2167   1.084       .  S
C2163      C2164   1.412       .  A
C2163      O2168   1.371       .  S
C2164      C2165   1.407       .  A
C2165      C2166   1.392       .  A
C2165      H2169   1.083   1_545  S
C2166      O2170   1.372       .  S
O2168      H2172   0.992       .  S
O2170      H2171   0.992       .  S
C2173      C2174   1.405       .  A
C2173      C2178   1.410       .  A
C2174      C2175   1.413       .  A
C2174      H2179   1.083       .  S
C2175      C2176   1.416       .  A
C2175      O2180   1.370       .  S
C2176      C2177   1.408       .  A
C2177      C2178   1.399       .  A
C2177      H2181   1.083       .  S
C2178      O2182   1.373       .  S
O2180      H2184   0.992       .  S
O2182      H2183   0.992       .  S
C2185      C2186   1.404       .  A
C2185      C2190   1.419       .  A
C2186      C2187   1.410       .  A
C2186      H2191   1.080       .  S
C2187      C2188   1.413       .  A
C2187      O2192   1.370       .  S
C2188      C2189   1.397       .  A
C2189      C2190   1.402       .  A
C2189      H2193   1.084       .  S
C2190      O2194   1.375       .  S
O2192      H2196   0.992       .  S
O2194      H2195   0.992       .  S
C2197      C2198   1.403       .  A
C2197      C2202   1.407       .  A
C2198      C2199   1.406       .  A
C2198      H2203   1.084       .  S
C2199      C2200   1.415       .  A
C2199      O2204   1.371       .  S
C2200      C2201   1.409       .  A
C2201      C2202   1.400       .  A
C2201      H2205   1.083       .  S
C2202      O2206   1.372       .  S
O2204      H2208   0.992       .  S
O2206      H2207   0.992       .  S
C2209      C2210   1.397       .  A
C2209      C2214   1.411       .  A
C2210      C2211   1.401       .  A
C2210      H2215   1.084       .  S
C2211      C2212   1.420       .  A
C2211      O2216   1.372       .  S
C2212      C2213   1.409       .  A
C2213      C2214   1.411       .  A
C2213      H2217   1.083       .  S
C2214      O2218   1.371       .  S
O2216      H2220   0.991       .  S
O2218      H2219   0.992       .  S
C2221      C2222   1.413       .  A
C2221      C2226   1.411       .  A
C2222      C2223   1.404       .  A
C2222      H2227   1.084       .  S
C2223      C2224   1.403       .  A
C2223      O2228   1.372       .  S
C2224      C2225   1.408       .  A
C2225      C2226   1.411       .  A
C2225      H2229   1.083       .  S
C2226      O2230   1.368       .  S
O2228      H2232   0.992       .  S
O2230      H2231   0.992       .  S
