geometry optimzed in LAMMPS
_audit_creation_date              2020-11-30 
_audit_creation_method            'lammps2cif' 
_symmetry_space_group_name_H-M    'P1' 
_symmetry_Int_Tables_number       1 
_symmetry_cell_setting            triclinic 
loop_ 
_symmetry_equiv_pos_as_xyz 
  x,y,z 
_cell_length_a                    36.433072344428155 
_cell_length_b                    36.41781127948595 
_cell_length_c                    36.454832202088014 
_cell_angle_alpha                 89.98645652647114 
_cell_angle_beta                  90.07557624289886 
_cell_angle_gamma                 89.85969603327814 
loop_ 
_atom_site_label 
_atom_site_type_symbol 
_atom_site_fract_x 
_atom_site_fract_y 
_atom_site_fract_z 
_atom_site_charge 
C1          C  0.22258018  0.85803495  0.96626542     0.03490
C2          C  0.22183787  0.83945011  0.99990496    -0.12660
C3          C  0.22404971  0.85856417  0.03321043     0.00990
C4          C  0.22828459  0.89701294  0.03257685    -0.11180
C5          C  0.22859804  0.91633463  0.99915480     0.03480
C6          C  0.22562232  0.89654348  0.96614622    -0.10600
H7          H  0.21866917  0.80988986  0.00014771     0.09080
H8          H  0.23018985  0.91206834  0.05811533     0.06610
H9          H  0.22498152  0.91128920  0.94034275     0.06450
C10         C  0.63525683  0.13215122  0.03314730     0.03490
C11         C  0.63938533  0.15051009  0.99966559    -0.12660
C12         C  0.63647897  0.13179028  0.96621572     0.00990
C13         C  0.62966048  0.09370130  0.96644683    -0.11180
C14         C  0.62618504  0.07449178  0.99976742     0.03480
C15         C  0.62799549  0.09422102  0.03291403    -0.10600
H16         H  0.64656608  0.17936609  0.99963819     0.09080
H17         H  0.62823361  0.07881318  0.94078601     0.06610
H18         H  0.62434001  0.07975224  0.05860674     0.06450
C19         C  0.96481113  0.69825637  0.13621692     0.03490
C20         C  0.93179419  0.70217244  0.15549172    -0.12660
C21         C  0.89790192  0.69940636  0.13767135     0.00990
C22         C  0.89711601  0.69375843  0.09950287    -0.11180
C23         C  0.92986377  0.69133951  0.07916090     0.03480
C24         C  0.96363811  0.69273325  0.09794807    -0.10600
H25         H  0.93243414  0.70918027  0.18435999     0.09080
H26         H  0.87093722  0.69175155  0.08553241     0.06610
H27         H  0.98900738  0.69078892  0.08260148     0.06450
C28         C  0.89776344  0.28489147  0.86286550     0.03490
C29         C  0.93066928  0.28411711  0.84311752    -0.12660
C30         C  0.96458124  0.28505602  0.86102354     0.00990
C31         C  0.96558802  0.28882545  0.89943067    -0.11180
C32         C  0.93286909  0.29017913  0.91996974     0.03480
C33         C  0.89903047  0.28805590  0.90136070    -0.10600
H34         H  0.92992896  0.28280298  0.81342277     0.09080
H35         H  0.99184291  0.29015139  0.91334022     0.06610
H36         H  0.87378258  0.28749755  0.91700578     0.06450
C37         C  0.63733886  0.85728400  0.96580115     0.03490
C38         C  0.63179453  0.89557921  0.96631516    -0.12720
C39         C  0.62926510  0.91466655  0.99981752     0.00990
C40         C  0.63136229  0.89465193  0.03280477    -0.11180
C41         C  0.63751620  0.85653074  0.03258125     0.03480
C42         C  0.64002857  0.83813725  0.99900700    -0.10600
H43         H  0.63117827  0.91069138  0.94071373     0.09080
H44         H  0.62857860  0.90882903  0.05878112     0.06610
H45         H  0.64496220  0.80877433  0.99869087     0.06450
C46         C  0.22040645  0.13442832  0.96603520     0.03490
C47         C  0.22348008  0.09591226  0.96579230    -0.12660
C48         C  0.22556705  0.07602353  0.99887513     0.00990
C49         C  0.22451073  0.09531122  0.03233338    -0.11180
C50         C  0.22121532  0.13383257  0.03268186     0.03480
C51         C  0.22055211  0.15300240  0.99951268    -0.10600
H52         H  0.22376527  0.08137564  0.93986668     0.09080
H53         H  0.22479760  0.08028688  0.05799581     0.06610
H54         H  0.21993695  0.18275855  0.99980210     0.06450
C55         C  0.96486480  0.70115670  0.86225782     0.03490
C56         C  0.96405656  0.69504370  0.90045791    -0.12660
C57         C  0.93043897  0.69299163  0.91939917     0.00990
C58         C  0.89751329  0.69613828  0.89936092    -0.11180
C59         C  0.89794293  0.70149434  0.86115478     0.03480
C60         C  0.93165272  0.70399519  0.84304556    -0.10600
H61         H  0.98953775  0.69291675  0.91561610     0.09080
H62         H  0.87149391  0.69520213  0.91368397     0.06610
H63         H  0.93196655  0.70890837  0.81374287     0.06450
C64         C  0.89733697  0.28876308  0.13706340     0.03490
C65         C  0.89848940  0.29244006  0.09858637    -0.12660
C66         C  0.93221310  0.29308730  0.07975490     0.00990
C67         C  0.96496786  0.29017186  0.10011462    -0.11180
C68         C  0.96428216  0.28631854  0.13853734     0.03480
C69         C  0.93039372  0.28600178  0.15661489    -0.10600
H70         H  0.87307189  0.29374465  0.08320327     0.09080
H71         H  0.99107427  0.29018908  0.08592145     0.06610
H72         H  0.92976115  0.28275097  0.18610945     0.06450
C73         C  0.79432997  0.96101317  0.29052107     0.03490
C74         C  0.77489747  0.99423975  0.29087502    -0.12660
C75         C  0.79324444  0.02796692  0.29128230     0.00990
C76         C  0.83183558  0.02825794  0.29287321    -0.11180
C77         C  0.85196550  0.99524153  0.29351972     0.03480
C78         C  0.83293357  0.96170055  0.29214279    -0.10600
H79         H  0.74515828  0.99384341  0.29064245     0.09080
H80         H  0.84630957  0.05418565  0.29299571     0.06610
H81         H  0.84830137  0.93623451  0.29088564     0.06450
C82         C  0.06771008  0.02856918  0.70579520     0.03490
C83         C  0.08733921  0.99557493  0.70794732    -0.12660
C84         C  0.06964307  0.96175765  0.70417548     0.00990
C85         C  0.03151193  0.96117841  0.69790145    -0.11180
C86         C  0.01107319  0.99402135  0.69570987     0.03480
C87         C  0.02963036  0.02774715  0.69922672    -0.10600
H88         H  0.11653581  0.99629783  0.71357976     0.09080
H89         H  0.01761380  0.93504751  0.69515337     0.06610
H90         H  0.01429072  0.05326185  0.69877279     0.06450
C91         C  0.79304517  0.96033364  0.70593516     0.03490
C92         C  0.83088806  0.95981686  0.69816606    -0.12660
C93         C  0.85114226  0.99263913  0.69595156     0.00990
C94         C  0.83234452  0.02635803  0.69881474    -0.11180
C95         C  0.79434907  0.02735655  0.70610709     0.03480
C96         C  0.77528301  0.99420185  0.70999641    -0.10600
H97         H  0.84478475  0.93380092  0.69426312     0.09080
H98         H  0.84751227  0.05176386  0.69632959     0.06610
H99         H  0.74656090  0.99475191  0.71763533     0.06450
C100        C  0.06994237  0.02776777  0.28989788     0.03490
C101        C  0.03142482  0.02794497  0.29274297    -0.12660
C102        C  0.01161089  0.99489845  0.29491713     0.00990
C103        C  0.03093025  0.96142256  0.29383801    -0.11180
C104        C  0.06939201  0.96082932  0.29015115     0.03480
C105        C  0.08855116  0.99409026  0.28888446    -0.10600
H106        H  0.01671694  0.05382139  0.29255464     0.09080
H107        H  0.01593090  0.93580197  0.29479087     0.06610
H108        H  0.11815049  0.99375757  0.28610378     0.06450
C109        C  0.46489482  0.35730386  0.20622187     0.03490
C110        C  0.43156771  0.33837801  0.20831415    -0.12660
C111        C  0.39799274  0.35701268  0.20567944     0.00990
C112        C  0.39810183  0.39528455  0.20019775    -0.11180
C113        C  0.43123671  0.41504511  0.19916527     0.03480
C114        C  0.46460047  0.39566604  0.20147211    -0.10600
H115        H  0.43185658  0.30913167  0.21381690     0.09080
H116        H  0.37234586  0.40988558  0.19720565     0.06610
H117        H  0.49030847  0.41054166  0.20064287     0.06450
Fe118      Fe  0.64362231  0.20701895  0.24876002     1.65780
Fe119      Fe  0.68007006  0.28265410  0.21126827     1.73250
Fe120      Fe  0.71910473  0.24497881  0.28632376     1.54420
O121        O  0.68300839  0.22698750  0.32760909    -0.81310
O122        O  0.73206782  0.26977183  0.19526245    -0.79620
O123        O  0.62833130  0.22041782  0.30073061    -0.83820
O124        O  0.67947993  0.16601839  0.26779583    -0.78670
O125        O  0.70727414  0.29733858  0.30116031    -0.80450
O126        O  0.66066939  0.24661185  0.17037312    -0.83190
C127        C  0.71402806  0.16432962  0.27322651     0.97570
C128        C  0.64824241  0.22272195  0.32910942     1.05010
O129        O  0.68106326  0.24487360  0.24885245    -1.12180
O130        O  0.62830636  0.29764414  0.22564076    -0.74610
O131        O  0.60222954  0.24257211  0.22942768    -0.78090
O132        O  0.73404517  0.19257791  0.27461541    -0.78780
C133        C  0.60020260  0.27743374  0.22652922     0.96480
O134        O  0.65729597  0.19172403  0.19699984    -0.76740
O135        O  0.69898516  0.32394230  0.24674616    -0.81930
C136        C  0.76073850  0.26758149  0.21479313     0.99100
C137        C  0.70497448  0.32560295  0.28118936     1.05020
O138        O  0.75973183  0.26305772  0.24953878    -0.77580
C139        C  0.65772116  0.21171353  0.16866110     1.03320
C140        C  0.39609942  0.35581489  0.79455046     0.03490
C141        C  0.42908013  0.33606349  0.79281810    -0.12660
C142        C  0.46297558  0.35385011  0.79501432     0.00990
C143        C  0.46382722  0.39224946  0.79915449    -0.11180
C144        C  0.43111283  0.41287127  0.80069177     0.03480
C145        C  0.39731464  0.39423293  0.79915344    -0.10600
H146        H  0.42843370  0.30658047  0.78887701     0.09080
H147        H  0.48999169  0.40618954  0.80026897     0.06610
H148        H  0.37196959  0.40978642  0.80048749     0.06450
C149        C  0.57015005  0.20496154  0.53249986     0.03490
C150        C  0.58915156  0.20521773  0.49909342    -0.12660
C151        C  0.57048726  0.20202754  0.46562520     0.00990
C152        C  0.53210770  0.19778793  0.46585939    -0.11180
C153        C  0.51230751  0.19793922  0.49896028     0.03480
C154        C  0.53167513  0.20103785  0.53224159    -0.10600
H155        H  0.61863559  0.20870771  0.49915589     0.09080
H156        H  0.51753044  0.19472606  0.44012611     0.06610
H157        H  0.51666210  0.20190142  0.55786675     0.06450
Fe158      Fe  0.71912558  0.24419488  0.71309094     1.65780
Fe159      Fe  0.64377442  0.20550835  0.75065543     1.73250
Fe160      Fe  0.67934463  0.28298744  0.78776731     1.54410
O161        O  0.73235990  0.27406599  0.80265786    -0.81310
O162        O  0.60141447  0.24054328  0.76835530    -0.79620
O163        O  0.76009519  0.26086621  0.74980479    -0.83820
O164        O  0.70858744  0.29691710  0.69807890    -0.78670
O165        O  0.66340181  0.24643006  0.82949347    -0.80450
O166        O  0.62862705  0.21650879  0.69823166    -0.83190
C167        C  0.70315112  0.32554927  0.71693835     0.97570
C168        C  0.76101862  0.26902054  0.78381018     1.05010
O169        O  0.68069241  0.24446189  0.75035786    -1.12180
O170        O  0.68005975  0.16444137  0.73283517    -0.74610
O171        O  0.73397950  0.19172588  0.72525335    -0.78090
O172        O  0.69475758  0.32448322  0.75089673    -0.78780
C173        C  0.71462079  0.16317692  0.72784571     0.96480
O174        O  0.68262342  0.22736197  0.67147778    -0.76740
O175        O  0.65698420  0.19157276  0.80304327    -0.81930
C176        C  0.59881974  0.27490100  0.77459939     0.99100
C177        C  0.65928985  0.21165638  0.83123623     1.05020
O178        O  0.62642040  0.29566577  0.77652151    -0.77580
C179        C  0.64829792  0.22024989  0.66992053     1.03320
C180        C  0.72261029  0.46161493  0.36055845     0.03490
C181        C  0.72136616  0.49525732  0.34208259    -0.12660
C182        C  0.72328781  0.52830389  0.36132048     0.00990
C183        C  0.72714149  0.52806050  0.39966746    -0.11180
C184        C  0.72796729  0.49455585  0.41897167     0.03480
C185        C  0.72595613  0.46144829  0.39905456    -0.10600
H186        H  0.71877294  0.49590523  0.31245252     0.09080
H187        H  0.72784699  0.55385411  0.41447394     0.06610
H188        H  0.72623837  0.43554449  0.41364653     0.06450
C189        C  0.39895613  0.63307652  0.20533385     0.03490
C190        C  0.39915202  0.59454815  0.20256958    -0.12660
C191        C  0.43238621  0.57484462  0.20068442     0.00990
C192        C  0.46569051  0.59430260  0.20241471    -0.11180
C193        C  0.46583944  0.63288055  0.20533663     0.03480
C194        C  0.43239982  0.65186378  0.20598933    -0.10600
H195        H  0.37340745  0.57974072  0.20259027     0.09080
H196        H  0.49139192  0.57931535  0.20309353     0.06610
H197        H  0.43242574  0.68159823  0.20721611     0.06450
Fe198      Fe  0.71905841  0.74266541  0.28821175     1.65780
Fe199      Fe  0.64492889  0.78268497  0.24810835     1.73250
Fe200      Fe  0.68257111  0.70658085  0.21064761     1.54420
O201        O  0.73508625  0.71948606  0.19724473    -0.81310
O202        O  0.60344457  0.74632030  0.23085074    -0.79620
O203        O  0.76122571  0.72648831  0.25220696    -0.83820
O204        O  0.70773726  0.68975938  0.30114382    -0.78670
O205        O  0.66497995  0.74235038  0.16916565    -0.80450
O206        O  0.62913468  0.77283054  0.30067046    -0.83190
C207        C  0.70528157  0.66211296  0.28049234     0.97570
C208        C  0.76315192  0.72233587  0.21747219     1.05010
O209        O  0.68202016  0.74390679  0.24926439    -1.12180
O210        O  0.68145687  0.82359547  0.26508255    -0.74610
O211        O  0.73405041  0.79565301  0.27928955    -0.78090
O212        O  0.69970877  0.66448638  0.24607688    -0.78780
C213        C  0.71533437  0.82441470  0.27382265     0.96480
O214        O  0.68155608  0.75840674  0.32895454    -0.76740
O215        O  0.65798025  0.79681803  0.19572292    -0.81930
C216        C  0.60183480  0.71189640  0.22414547     0.99100
C217        C  0.66028726  0.77693303  0.16748465     1.05020
O218        O  0.63007635  0.69187069  0.22118013    -0.77580
C219        C  0.64761312  0.76714273  0.32952547     1.03320
C220        C  0.56778589  0.78550739  0.53245865     0.03490
C221        C  0.52940553  0.79018989  0.53223543    -0.12660
C222        C  0.50975570  0.79178449  0.49902952     0.00990
C223        C  0.52906295  0.78928052  0.46573579    -0.11180
C224        C  0.56752728  0.78515042  0.46546573     0.03480
C225        C  0.58647193  0.78357260  0.49894157    -0.10600
H226        H  0.51463879  0.79243556  0.55791853     0.09080
H227        H  0.51392164  0.78886896  0.44015066     0.06610
H228        H  0.61597874  0.77990940  0.49889080     0.06450
C229        C  0.72080877  0.46176873  0.63687670     0.03490
C230        C  0.71981291  0.49544786  0.65541455    -0.12660
C231        C  0.72251837  0.52879537  0.63638766     0.00990
C232        C  0.72747676  0.52815858  0.59804661    -0.11180
C233        C  0.72810999  0.49471139  0.57871474     0.03480
C234        C  0.72464772  0.46166769  0.59845498    -0.10600
H235        H  0.71610355  0.49569938  0.68488331     0.09080
H236        H  0.72973596  0.55372873  0.58307233     0.06610
H237        H  0.72426386  0.43584925  0.58372594     0.06450
C238        C  0.39754223  0.63049877  0.79052227     0.03490
C239        C  0.39787883  0.59210943  0.79515118    -0.12660
C240        C  0.43131247  0.57281804  0.79818838     0.00990
C241        C  0.46445160  0.59260592  0.79641645    -0.11180
C242        C  0.46436055  0.63102765  0.79227641     0.03480
C243        C  0.43078553  0.64960648  0.79014563    -0.10600
H244        H  0.37223192  0.57716098  0.79481118     0.09080
H245        H  0.49034458  0.57795589  0.79751906     0.06610
H246        H  0.43051851  0.67930429  0.78804725     0.06450
Fe247      Fe  0.71834398  0.74520902  0.71203384     1.65780
Fe248      Fe  0.68153443  0.70715285  0.78813728     1.73250
Fe249      Fe  0.64148561  0.78150783  0.74854365     1.54420
O250        O  0.67743195  0.82346858  0.73109063    -0.81310
O251        O  0.62868817  0.69204458  0.77874967    -0.79620
O252        O  0.73252657  0.79728923  0.72546880    -0.83820
O253        O  0.68278011  0.76369529  0.67035463    -0.78670
O254        O  0.65122643  0.79718108  0.80120021    -0.80450
O255        O  0.69815995  0.66570962  0.75137794    -0.83190
C256        C  0.64798655  0.76670693  0.66823093     0.97570
C257        C  0.71227940  0.82545146  0.72745338     1.05010
O258        O  0.68043150  0.74461751  0.74983540    -1.12180
O259        O  0.73420381  0.71839758  0.80181887    -0.74610
O260        O  0.76016987  0.72713989  0.74736807    -0.78090
O261        O  0.62781572  0.76789698  0.69629710    -0.78780
C262        C  0.76219673  0.72083511  0.78167686     0.96480
O263        O  0.70603634  0.69287205  0.69696954    -0.76740
O264        O  0.66543627  0.74434144  0.82907890    -0.81930
C265        C  0.59994386  0.71094501  0.77399353     0.99100
C266        C  0.65672248  0.77832270  0.82986562     1.05020
O267        O  0.60071424  0.74490227  0.76559915    -0.77580
C268        C  0.70309763  0.66440439  0.71668218     1.03320
C269        C  0.29161405  0.78694837  0.53125069     0.03490
C270        C  0.33018143  0.78942142  0.53145509    -0.12660
C271        C  0.35008148  0.79189495  0.49848487     0.00990
C272        C  0.33078363  0.79204555  0.46502518    -0.11180
C273        C  0.29222619  0.78896478  0.46436420     0.03480
C274        C  0.27306747  0.78675163  0.49757910    -0.10600
H275        H  0.34487557  0.78872290  0.55728058     0.09080
H276        H  0.34587459  0.79336513  0.43946361     0.06610
H277        H  0.24350215  0.78383272  0.49721086     0.06450
C278        C  0.13779861  0.52945806  0.63671160     0.03490
C279        C  0.13969194  0.49587565  0.65538083    -0.12660
C280        C  0.13665971  0.46248006  0.63659974     0.00990
C281        C  0.13053281  0.46296716  0.59849495    -0.11180
C282        C  0.12932468  0.49626058  0.57893208     0.03480
C283        C  0.13284446  0.52946927  0.59835635    -0.10600
H284        H  0.14434660  0.49576755  0.68473044     0.09080
H285        H  0.12715769  0.43733415  0.58382008     0.06610
H286        H  0.13340640  0.55519432  0.58345553     0.06450
Fe287      Fe  0.22021694  0.78235404  0.74848686     1.65780
Fe288      Fe  0.14282742  0.74602368  0.71189655     1.73250
Fe289      Fe  0.18050618  0.70794226  0.78775517     1.54410
O290        O  0.23299732  0.69222219  0.77776109    -0.81310
O291        O  0.10131289  0.72873762  0.74780690    -0.79620
O292        O  0.26115130  0.74483738  0.76430598    -0.83820
O293        O  0.21102900  0.79714722  0.80146383    -0.78670
O294        O  0.16344492  0.66654030  0.75115160    -0.80450
O295        O  0.12933565  0.79860841  0.72471201    -0.83190
C296        C  0.20584983  0.77820752  0.83005420     0.97570
C297        C  0.26178463  0.71083794  0.77280392     1.05010
O298        O  0.18141846  0.74529675  0.74931261    -1.12180
O299        O  0.17845978  0.76307439  0.66988546    -0.74610
O300        O  0.23325830  0.77110566  0.69567189    -0.78090
O301        O  0.19738762  0.74427669  0.82897517    -0.78780
C302        C  0.21289325  0.76892635  0.66772562     0.96480
O303        O  0.18418286  0.82466956  0.73227743    -0.76740
O304        O  0.15329607  0.69345901  0.69702007    -0.81930
C305        C  0.09983717  0.72372955  0.78235086     0.99100
C306        C  0.15662312  0.66510390  0.71676998     1.05020
O307        O  0.12821008  0.72089307  0.80199702    -0.77580
C308        C  0.14947070  0.82666375  0.72772795     1.03320
C309        C  0.29450385  0.20265605  0.53319511     0.03490
C310        C  0.33308204  0.20017253  0.53294166    -0.12660
C311        C  0.35246625  0.19801942  0.49960083     0.00990
C312        C  0.33260845  0.19938534  0.46642646    -0.11180
C313        C  0.29406255  0.20198230  0.46643995     0.03480
C314        C  0.27541216  0.20187617  0.49991117    -0.10600
H315        H  0.34805961  0.20136529  0.55859876     0.09080
H316        H  0.34722080  0.19903840  0.44056939     0.06610
H317        H  0.24568080  0.20164904  0.50006547     0.06450
Fe318      Fe  0.14337616  0.24572284  0.70960773     1.65780
Fe319      Fe  0.18005810  0.28333050  0.78590473     1.73250
Fe320      Fe  0.21717647  0.20615778  0.75017940     1.54420
O321        O  0.18042453  0.16523146  0.73318934    -0.81310
O322        O  0.23239164  0.29732231  0.77310222    -0.79620
O323        O  0.12757849  0.19320127  0.71954178    -0.83820
O324        O  0.18053036  0.22830863  0.66924216    -0.78670
O325        O  0.20436016  0.19280887  0.80232602    -0.80450
O326        O  0.16211767  0.32468789  0.75007364    -0.83190
C327        C  0.21460190  0.22010257  0.66890069     0.97570
C328        C  0.14648845  0.16448122  0.72452836     1.05010
O329        O  0.18001562  0.24481895  0.74859718    -1.12180
O330        O  0.12766652  0.27208050  0.80032886    -0.74610
O331        O  0.10147396  0.26320053  0.74558298    -0.78090
O332        O  0.23321418  0.21587950  0.69785360    -0.78780
C333        C  0.09960604  0.26961395  0.78003883     0.96480
O334        O  0.15660732  0.29806258  0.69553748    -0.76740
O335        O  0.19778988  0.24787480  0.82791604    -0.81930
C336        C  0.26055105  0.27704000  0.77167305     0.99100
C337        C  0.20318642  0.21333364  0.83012495     1.05020
O338        O  0.25873511  0.24222443  0.76782309    -0.77580
C339        C  0.15817431  0.32637799  0.71541721     1.03320
C340        C  0.13839944  0.52893693  0.36153491     0.03490
C341        C  0.13355485  0.52884560  0.39989208    -0.12660
C342        C  0.13023453  0.49558144  0.41926143     0.00990
C343        C  0.13095815  0.46235305  0.39958215    -0.11180
C344        C  0.13712938  0.46193502  0.36149707     0.03480
C345        C  0.14024696  0.49538296  0.34280189    -0.10600
H346        H  0.13398966  0.55453326  0.41486546     0.09080
H347        H  0.12720341  0.43670514  0.41412594     0.06610
H348        H  0.14490711  0.49533828  0.31346670     0.06450
Fe349      Fe  0.21941703  0.78157878  0.24894009     1.65780
Fe350      Fe  0.18193347  0.70669022  0.21026144     1.73250
Fe351      Fe  0.14294129  0.74516524  0.28477334     1.54420
O352        O  0.17858378  0.76426030  0.32638132    -0.81310
O353        O  0.12984498  0.71957239  0.19459388    -0.79620
O354        O  0.23393384  0.76707625  0.30063904    -0.83820
O355        O  0.18383352  0.82287966  0.26830892    -0.78670
O356        O  0.15445064  0.69309576  0.30088597    -0.80450
O357        O  0.20052838  0.74315975  0.16952411    -0.83190
C358        C  0.14893645  0.82506599  0.27020088     0.97570
C359        C  0.21352372  0.76663523  0.32861791     1.05010
O360        O  0.18156676  0.74418016  0.24806266    -1.12180
O361        O  0.23404995  0.69136039  0.22256857    -0.74610
O362        O  0.26056896  0.74585816  0.23003799    -0.78090
O363        O  0.12863025  0.79702310  0.27003718    -0.78780
C364        C  0.26228360  0.71133545  0.22441219     0.96480
O365        O  0.20654275  0.79757349  0.19701688    -0.76740
O366        O  0.16377525  0.66569306  0.24683589    -0.81930
C367        C  0.10119584  0.72155847  0.21396382     0.99100
C368        C  0.15736490  0.66454170  0.28132063     1.05020
O369        O  0.10228881  0.72609141  0.24862921    -0.77580
C370        C  0.20468697  0.77797051  0.16841885     1.03320
Fe371      Fe  0.21964653  0.20647558  0.24874609     1.65780
Fe372      Fe  0.14475364  0.24523916  0.28789288     1.73250
Fe373      Fe  0.18192039  0.28314123  0.21206319     1.54420
O374        O  0.23436104  0.29735987  0.22477978    -0.81310
O375        O  0.10303584  0.26276104  0.25172222    -0.79620
O376        O  0.26111975  0.24263982  0.23159989    -0.83820
O377        O  0.20791191  0.19271853  0.19640979    -0.78670
O378        O  0.16398114  0.32445850  0.24795740    -0.80450
O379        O  0.12957597  0.19270425  0.27711492    -0.83190
C380        C  0.20572392  0.21298036  0.16844880     0.97570
C381        C  0.26268857  0.27735446  0.22709392     1.05010
O382        O  0.18196858  0.24475348  0.24949810    -1.12180
O383        O  0.18130754  0.22766018  0.32880938    -0.74610
O384        O  0.23477512  0.21664476  0.30129345    -0.78090
O385        O  0.19953495  0.24741646  0.17034634    -0.78780
C386        C  0.21547523  0.22000129  0.32985075     0.96480
O387        O  0.18311415  0.16531536  0.26538716    -0.76740
O388        O  0.15746265  0.29763013  0.30235679    -0.81930
C389        C  0.10124503  0.26929197  0.21730972     0.99100
C390        C  0.15943997  0.32601637  0.28256303     1.05020
O391        O  0.12944365  0.27188746  0.19729528    -0.77580
C392        C  0.14893655  0.16414949  0.27286578     1.03320
C393        C  0.16999204  0.56630950  0.31307196    -0.20940
C394        C  0.14310139  0.56373457  0.34075489    -0.08990
C395        C  0.12033953  0.59419869  0.34750412     0.29870
C396        C  0.12503132  0.62658137  0.32758026    -0.20940
C397        C  0.15191009  0.62910568  0.30005839    -0.09000
C398        C  0.17416964  0.59855996  0.29263490     0.29880
F399        F  0.20088837  0.60038127  0.26679145    -0.19520
H400        H  0.18821868  0.54344060  0.30755810     0.18240
H401        H  0.10732949  0.64979297  0.33347811     0.18250
F402        F  0.09293570  0.59245195  0.37263934    -0.19510
C403        C  0.12832555  0.42252922  0.30552396    -0.20940
C404        C  0.14255466  0.42686746  0.34123673    -0.08990
C405        C  0.16375152  0.39825278  0.35642148     0.29870
C406        C  0.16963801  0.36595991  0.33670846    -0.20940
C407        C  0.15543582  0.36172174  0.30115470    -0.09000
C408        C  0.13498244  0.39043336  0.28547397     0.29880
F409        F  0.12012051  0.38686050  0.25149686    -0.19520
H410        H  0.11166861  0.44389082  0.29318793     0.18240
H411        H  0.18564242  0.34417171  0.34921850     0.18250
F412        F  0.17984187  0.40176764  0.38983315    -0.19510
C413        C  0.22437780  0.23571632  0.60299437    -0.20940
C414        C  0.23393933  0.21480842  0.63378986    -0.08990
C415        C  0.26341946  0.18975186  0.63133645     0.29870
C416        C  0.28296715  0.18595715  0.59866507    -0.20940
C417        C  0.27376584  0.20716428  0.56790746    -0.09000
C418        C  0.24431061  0.23234096  0.57044978     0.29880
F419        F  0.23552414  0.25466683  0.54192441    -0.19520
H420        H  0.20219553  0.25552758  0.60447895     0.18240
H421        H  0.30510820  0.16609533  0.59730097     0.18250
F422        F  0.27300814  0.16840169  0.66037203    -0.19510
C423        C  0.28244149  0.18487476  0.40102665    -0.20940
C424        C  0.27303739  0.20601854  0.43175160    -0.08990
C425        C  0.24355443  0.23116494  0.42896383     0.29870
C426        C  0.22403507  0.23479489  0.39613387    -0.20940
C427        C  0.23407025  0.21421086  0.36531137    -0.09000
C428        C  0.26335402  0.18898021  0.36808026     0.29880
F429        F  0.27328656  0.16787377  0.33901579    -0.19520
H430        H  0.30452830  0.16496832  0.40254389     0.18240
H431        H  0.20192025  0.25466483  0.39441864     0.18250
F432        F  0.23448574  0.25340171  0.45743388    -0.19510
C433        C  0.15097722  0.47167501  0.51869587    -0.20940
C434        C  0.12795138  0.49584983  0.53803081    -0.08990
C435        C  0.10497229  0.51972068  0.51794723     0.29870
C436        C  0.10549679  0.51942736  0.47940285    -0.20940
C437        C  0.12874354  0.49526428  0.46016658    -0.09000
C438        C  0.15151500  0.47136245  0.48038264     0.29880
F439        F  0.17556045  0.44866792  0.46317081    -0.19520
H440        H  0.16946351  0.45351670  0.53335833     0.18240
H441        H  0.08753056  0.53793477  0.46453429     0.18250
F442        F  0.08155450  0.54280730  0.53550228    -0.19510
C443        C  0.12415468  0.62692380  0.67079626    -0.20940
C444        C  0.15114594  0.62955370  0.69827144    -0.08990
C445        C  0.17353146  0.59908439  0.70570279     0.29870
C446        C  0.16939214  0.56682236  0.68526556    -0.20940
C447        C  0.14244580  0.56419954  0.65756503    -0.09000
C448        C  0.11953560  0.59456314  0.65085766     0.29880
F449        F  0.09207752  0.59274834  0.62571479    -0.19520
H450        H  0.10634661  0.65006361  0.66489488     0.18240
H451        H  0.18769838  0.54400366  0.69076440     0.18250
F452        F  0.20034087  0.60100412  0.73151445    -0.19510
C453        C  0.12744989  0.42298519  0.69238396    -0.20940
C454        C  0.14197904  0.42739555  0.65684185    -0.08990
C455        C  0.16325795  0.39881042  0.64180281     0.29870
C456        C  0.16892338  0.36645149  0.66149349    -0.20940
C457        C  0.15439287  0.36212773  0.69687184    -0.09000
C458        C  0.13387178  0.39082473  0.71241474     0.29880
F459        F  0.11871448  0.38717677  0.74621616    -0.19520
H460        H  0.11071891  0.44434084  0.70458893     0.18240
H461        H  0.18500016  0.34467256  0.64910062     0.18250
F462        F  0.17960425  0.40241310  0.60856201    -0.19510
C463        C  0.28567998  0.76016734  0.40263284    -0.20940
C464        C  0.27194086  0.78432603  0.42929293    -0.08990
C465        C  0.23774840  0.80161920  0.42311169     0.29870
C466        C  0.21775211  0.79433930  0.39110435    -0.20940
C467        C  0.23184626  0.77044557  0.36445537    -0.09000
C468        C  0.26606001  0.75345615  0.37046733     0.29880
F469        F  0.28043561  0.73005001  0.34526693    -0.19520
H470        H  0.31145801  0.74591749  0.40694254     0.18240
H471        H  0.19195815  0.80847830  0.38646589     0.18250
F472        F  0.22415752  0.82637740  0.44742277    -0.19510
C473        C  0.24079575  0.75842923  0.56812699    -0.20940
C474        C  0.27049360  0.78313815  0.56593979    -0.08990
C475        C  0.27942924  0.80421425  0.59697753     0.29870
C476        C  0.26000619  0.79962117  0.62958172    -0.20940
C477        C  0.23076354  0.77460673  0.63188657    -0.09000
C478        C  0.22081036  0.75445293  0.60066625     0.29880
F479        F  0.19294703  0.72982364  0.60203935    -0.19520
H480        H  0.23345508  0.74154569  0.54481176     0.18240
H481        H  0.26777720  0.81590671  0.65321490     0.18250
F482        F  0.30640212  0.82983641  0.59572127    -0.19510
C483        C  0.50165521  0.67985882  0.76155899    -0.20940
C484        C  0.49900819  0.65203817  0.78831844    -0.08990
C485        C  0.52940405  0.64496258  0.81103440     0.29870
C486        C  0.56190674  0.66459497  0.80626247    -0.20940
C487        C  0.56458022  0.69212528  0.77934414    -0.09000
C488        C  0.53399830  0.69998103  0.75728049     0.29880
F489        F  0.53583161  0.72596981  0.73065145    -0.19520
H490        H  0.47878268  0.68564216  0.74343167     0.18240
H491        H  0.58506113  0.65847021  0.82393845     0.18250
F492        F  0.52750521  0.61975381  0.83840063    -0.19510
C493        C  0.33301381  0.64439666  0.80894240    -0.20940
C494        C  0.36271679  0.65106162  0.78553032    -0.08990
C495        C  0.35926238  0.67826754  0.75812028     0.29870
C496        C  0.32678780  0.69855014  0.75467274    -0.20940
C497        C  0.29704478  0.69154627  0.77790029    -0.09000
C498        C  0.30046762  0.66433309  0.80521755     0.29880
F499        F  0.27252270  0.65749216  0.82885067    -0.19520
H500        H  0.33520404  0.62403282  0.83055115     0.18240
H501        H  0.32448185  0.71897926  0.73314009     0.18250
F502        F  0.38687088  0.68449831  0.73394982    -0.19510
C503        C  0.73375005  0.56822756  0.69189862    -0.20940
C504        C  0.71798939  0.56391842  0.65681304    -0.08990
C505        C  0.69605391  0.59249368  0.64265627     0.29870
C506        C  0.69080157  0.62466755  0.66279385    -0.20940
C507        C  0.70640150  0.62878779  0.69778271    -0.09000
C508        C  0.72774743  0.60018058  0.71238949     0.29880
F509        F  0.74409139  0.60375869  0.74568100    -0.19520
H510        H  0.75104326  0.54690745  0.70341336     0.18240
H511        H  0.67419845  0.64645745  0.65109002     0.18250
F512        F  0.67862344  0.58901650  0.60991926    -0.19510
C513        C  0.44934763  0.76743829  0.52045601    -0.20940
C514        C  0.46889090  0.79299701  0.49929942    -0.08990
C515        C  0.44910598  0.81855976  0.47801077     0.29870
C516        C  0.41056041  0.81822783  0.47788629    -0.20940
C517        C  0.39102698  0.79249487  0.49899190    -0.09000
C518        C  0.41094714  0.76697821  0.52021910     0.29880
F519        F  0.39333809  0.74061226  0.53970921    -0.19520
H520        H  0.46393887  0.74711597  0.53658818     0.18240
H521        H  0.39591041  0.83831649  0.46152249     0.18250
F522        F  0.46701524  0.84428820  0.45794076    -0.19510
C523        C  0.62332883  0.79699934  0.57189943    -0.20940
C524        C  0.58854979  0.78069471  0.56733717    -0.08990
C525        C  0.57479891  0.75828341  0.59559220     0.29870
C526        C  0.59489974  0.75327112  0.62780926    -0.20940
C527        C  0.62945171  0.76967290  0.63236850    -0.09000
C528        C  0.64378234  0.79132750  0.60396934     0.29880
F529        F  0.67666770  0.80833534  0.60788736    -0.19520
H530        H  0.63454522  0.81460066  0.55075455     0.18240
H531        H  0.58342430  0.73631670  0.64937194     0.18250
F532        F  0.54242441  0.74030313  0.59180281    -0.19510
C533        C  0.59987573  0.79802468  0.36730893    -0.20940
C534        C  0.62830043  0.77192816  0.36481338    -0.08990
C535        C  0.63682419  0.75042880  0.39561638     0.29870
C536        C  0.61666382  0.75456119  0.42799720    -0.20940
C537        C  0.58815878  0.78070365  0.43055120    -0.09000
C538        C  0.58023246  0.80270199  0.39983871     0.29880
F539        F  0.55426308  0.82944733  0.40146745    -0.19520
H540        H  0.59313834  0.81529858  0.34403497     0.18240
H541        H  0.62309329  0.73686586  0.45101329     0.18250
F542        F  0.66369692  0.72459883  0.39407335    -0.19510
C543        C  0.36174411  0.68305172  0.23467274    -0.20940
C544        C  0.36412181  0.65395478  0.20926396    -0.08990
C545        C  0.33313559  0.64526508  0.18798427     0.29870
C546        C  0.30035445  0.66446179  0.19299622    -0.20940
C547        C  0.29795017  0.69318798  0.21862041    -0.09000
C548        C  0.32907785  0.70278084  0.23909300     0.29880
F549        F  0.32748855  0.73005596  0.26441731    -0.19520
H550        H  0.38505911  0.69011033  0.25172210     0.18240
H551        H  0.27672112  0.65702302  0.17652498     0.18250
F552        F  0.33464476  0.61881239  0.16179562    -0.19510
C553        C  0.56370359  0.66549476  0.19218948    -0.20940
C554        C  0.56620291  0.69371081  0.21841415    -0.08990
C555        C  0.53539560  0.70236144  0.23974409     0.29870
C556        C  0.50297143  0.68231320  0.23546132    -0.20940
C557        C  0.50055238  0.65374384  0.20945941    -0.09000
C558        C  0.53119282  0.64588181  0.18745991     0.29880
F559        F  0.52954566  0.61985034  0.16086081    -0.19520
H560        H  0.58708115  0.65870557  0.17511084     0.18240
H561        H  0.47985900  0.68872315  0.25300941     0.18250
F562        F  0.53711189  0.72897582  0.26574516    -0.19510
C563        C  0.75377201  0.51619437  0.47937713    -0.20940
C564        C  0.72885725  0.49408323  0.45988498    -0.08990
C565        C  0.70429053  0.47196880  0.47982950     0.29870
C566        C  0.70468779  0.47208558  0.51818917    -0.20940
C567        C  0.72942425  0.49423798  0.53778045    -0.09000
C568        C  0.75422487  0.51623736  0.51789929     0.29880
F569        F  0.77938883  0.53718995  0.53562806    -0.19520
H570        H  0.77318808  0.53322787  0.46470089     0.18240
H571        H  0.68483671  0.45540303  0.53267346     0.18250
F572        F  0.67879801  0.45125810  0.46229254    -0.19510
C573        C  0.68450686  0.57164715  0.32564542    -0.20940
C574        C  0.71888014  0.56277643  0.34076571    -0.08990
C575        C  0.74911808  0.58545974  0.33383119     0.29870
C576        C  0.74468794  0.61717633  0.31269759    -0.20940
C577        C  0.71024685  0.62623315  0.29788727    -0.09000
C578        C  0.68009828  0.60334445  0.30444859     0.29880
F579        F  0.64627384  0.61245622  0.29165890    -0.19520
H580        H  0.66104493  0.55409028  0.33059962     0.18240
H581        H  0.76804775  0.63500266  0.30819056     0.18250
F582        F  0.78284336  0.57666904  0.34709962    -0.19510
C583        C  0.73371662  0.36350640  0.66936199    -0.20940
C584        C  0.70798461  0.36108683  0.69798777    -0.08990
C585        C  0.68691628  0.39212717  0.70689209     0.29870
C586        C  0.69094847  0.42459415  0.68671837    -0.20940
C587        C  0.71657252  0.42695603  0.65783932    -0.09000
C588        C  0.73831699  0.39606422  0.64974352     0.29880
F589        F  0.76474702  0.39749788  0.62356889    -0.19520
H590        H  0.75074631  0.34010164  0.66237947     0.18240
H591        H  0.67353625  0.44778129  0.69337821     0.18250
F592        F  0.66157059  0.39073271  0.73410567    -0.19510
C593        C  0.45198995  0.17416714  0.52287522    -0.20940
C594        C  0.47136590  0.19702509  0.49859490    -0.08990
C595        C  0.45127592  0.21973335  0.47452601     0.29870
C596        C  0.41289715  0.21959202  0.47491566    -0.20940
C597        C  0.39343109  0.19691257  0.49923405    -0.09000
C598        C  0.41346205  0.17392679  0.52316175     0.29880
F599        F  0.39587143  0.15064503  0.54626842    -0.19520
H600        H  0.46674826  0.15617828  0.54144042     0.18240
H601        H  0.39833822  0.23803387  0.45665209     0.18250
F602        F  0.46868546  0.24324648  0.45152378    -0.19510
C603        C  0.58206228  0.18660085  0.59747934    -0.20940
C604        C  0.59067422  0.20914380  0.56752844    -0.08990
C605        C  0.61933610  0.23495786  0.57124981     0.29870
C606        C  0.63899054  0.23768235  0.60416346    -0.20940
C607        C  0.62986910  0.21547541  0.63415461    -0.09000
C608        C  0.60123935  0.18976945  0.63047831     0.29880
F609        F  0.59210408  0.16722886  0.65869469    -0.19520
H610        H  0.56060573  0.16616424  0.59523678     0.18240
H611        H  0.66049736  0.25803939  0.60663444     0.18250
F612        F  0.62750064  0.25854820  0.54362836    -0.19510
C613        C  0.40851825  0.47391324  0.82454299    -0.20940
C614        C  0.43220370  0.45388267  0.80148347    -0.08990
C615        C  0.45595507  0.47342965  0.77810927     0.29870
C616        C  0.45577161  0.51183235  0.77772438    -0.20940
C617        C  0.43185035  0.53188928  0.80038356    -0.09000
C618        C  0.40831596  0.51247450  0.82409630     0.29880
F619        F  0.38555057  0.53070824  0.84728654    -0.19520
H620        H  0.39024025  0.45968925  0.84303886     0.18240
H621        H  0.47369725  0.52592126  0.75878844     0.18250
F622        F  0.47826877  0.45551840  0.75425773    -0.19510
C623        C  0.35570157  0.30106703  0.80521385    -0.20940
C624        C  0.36089383  0.33592532  0.78921345    -0.08990
C625        C  0.33333161  0.35013979  0.76611809     0.29870
C626        C  0.30125629  0.33022262  0.75988839    -0.20940
C627        C  0.29626506  0.29543546  0.77572334    -0.09000
C628        C  0.32387467  0.28080183  0.79827937     0.29880
F629        F  0.31938727  0.24775359  0.81489682    -0.19520
H630        H  0.37627333  0.28953722  0.82338318     0.18240
H631        H  0.28019308  0.34197293  0.74240416     0.18250
F632        F  0.33774714  0.38268475  0.74853999    -0.19510
C633        C  0.49992224  0.30478430  0.76375634    -0.20940
C634        C  0.49729168  0.33218116  0.79098591    -0.08990
C635        C  0.52754558  0.33849647  0.81403709     0.29870
C636        C  0.56006528  0.31891096  0.80888087    -0.20940
C637        C  0.56289544  0.29217327  0.78121808    -0.09000
C638        C  0.53236017  0.28467410  0.75908268     0.29880
F639        F  0.53447416  0.25939006  0.73181448    -0.19520
H640        H  0.47714096  0.29955188  0.74544970     0.18240
H641        H  0.58324798  0.32470306  0.82654342     0.18250
F642        F  0.52560369  0.36319202  0.84186551    -0.19510
C643        C  0.73664352  0.36381169  0.32765909    -0.20940
C644        C  0.71053923  0.36125885  0.29936098    -0.08990
C645        C  0.68910510  0.39205416  0.29057036     0.29870
C646        C  0.69306263  0.42450573  0.31069156    -0.20940
C647        C  0.71890997  0.42698003  0.33941009    -0.09000
C648        C  0.74114795  0.39637971  0.34726040     0.29880
F649        F  0.76776600  0.39808982  0.37329344    -0.19520
H650        H  0.75380346  0.34044475  0.33450359     0.18240
H651        H  0.67533815  0.44753898  0.30425123     0.18250
F652        F  0.66327022  0.39027852  0.26376969    -0.19510
C653        C  0.64524954  0.19751650  0.39269406    -0.20940
C654        C  0.62974671  0.21912021  0.36483594    -0.08990
C655        C  0.59466932  0.23442958  0.37002500     0.29870
C656        C  0.57564145  0.22843759  0.40263496    -0.20940
C657        C  0.59076369  0.20647378  0.43052537    -0.09000
C658        C  0.62580839  0.19076030  0.42509633     0.29880
F659        F  0.64079606  0.16789389  0.45045853    -0.19520
H660        H  0.67182956  0.18470956  0.38876899     0.18240
H661        H  0.54914998  0.24149734  0.40623630     0.18250
F662        F  0.57891840  0.25561709  0.34366400    -0.19510
C663        C  0.45442100  0.47554914  0.17495222    -0.20940
C664        C  0.43090923  0.45598776  0.19844426    -0.08990
C665        C  0.40796933  0.47587824  0.22237779     0.29870
C666        C  0.40857691  0.51425527  0.22269777    -0.20940
C667        C  0.43205583  0.53390298  0.19932428    -0.09000
C668        C  0.45496522  0.51409630  0.17522802     0.29880
F669        F  0.47727718  0.53194739  0.15139000    -0.19520
H670        H  0.47219784  0.46093419  0.15613283     0.18240
H671        H  0.39113868  0.52867560  0.24197070     0.18250
F672        F  0.38594101  0.45823894  0.24662847    -0.19510
C673        C  0.35883654  0.30106832  0.19610362    -0.20940
C674        C  0.36318112  0.33646590  0.21111644    -0.08990
C675        C  0.33482816  0.35104403  0.23294932     0.29870
C676        C  0.30270252  0.33110259  0.23863130    -0.20940
C677        C  0.29838729  0.29591743  0.22354336    -0.09000
C678        C  0.32688015  0.28079426  0.20248420     0.29880
F679        F  0.32316268  0.24723534  0.18672326    -0.19520
H680        H  0.38007490  0.28920592  0.17901685     0.18240
H681        H  0.28106039  0.34316993  0.25509167     0.18250
F682        F  0.33844122  0.38407814  0.24978464    -0.19510
C683        C  0.50556693  0.30343992  0.19274712    -0.20940
C684        C  0.49965596  0.33674078  0.21147010    -0.08990
C685        C  0.52623358  0.34904208  0.23657158     0.29870
C686        C  0.55840873  0.32889623  0.24199009    -0.20940
C687        C  0.56439022  0.29582540  0.22311854    -0.09000
C688        C  0.53763595  0.28302630  0.19855733     0.29880
F689        F  0.54330265  0.25185498  0.17892349    -0.19520
H690        H  0.48545815  0.29346949  0.17323510     0.18240
H691        H  0.57881583  0.33914470  0.26105761     0.18250
F692        F  0.52071491  0.37998184  0.25659729    -0.19510
C693        C  0.12365427  0.92022997  0.30320806    -0.20940
C694        C  0.08981110  0.92584132  0.28528445    -0.08990
C695        C  0.07687909  0.89874717  0.26103434     0.29870
C696        C  0.09691341  0.86652521  0.25568150    -0.20940
C697        C  0.13055767  0.86091784  0.27366217    -0.09000
C698        C  0.14403402  0.88815629  0.29729712     0.29880
F699        F  0.17594160  0.88304743  0.31590564    -0.19520
H700        H  0.13416727  0.94058057  0.32214494     0.18240
H701        H  0.08614346  0.84582023  0.23725332     0.18250
F702        F  0.04545065  0.90377172  0.24161459    -0.19510
C703        C  0.11992892  0.06506592  0.26085155    -0.20940
C704        C  0.09090128  0.06251546  0.28625703    -0.08990
C705        C  0.08240318  0.09324279  0.30800718     0.29870
C706        C  0.10172608  0.12594100  0.30349619    -0.20940
C707        C  0.13041279  0.12855655  0.27788118    -0.09000
C708        C  0.13979943  0.09763997  0.25692443     0.29880
F709        F  0.16710238  0.09931087  0.23168549    -0.19520
H710        H  0.12685733  0.04197882  0.24344916     0.18240
H711        H  0.09443634  0.14930777  0.32041041     0.18250
F712        F  0.05603268  0.09153345  0.33422473    -0.19510
C713        C  0.73579618  0.92252667  0.69850676    -0.20940
C714        C  0.77200321  0.92583834  0.71184007    -0.08990
C715        C  0.78705469  0.89667538  0.73227194     0.29870
C716        C  0.76680596  0.86475202  0.73809988    -0.20940
C717        C  0.73089596  0.86128898  0.72441107    -0.09000
C718        C  0.71527376  0.89069533  0.70494526     0.29880
F719        F  0.68095622  0.88802466  0.69066905    -0.19520
H720        H  0.72351091  0.94443940  0.68255483     0.18240
H721        H  0.77933410  0.84249191  0.75340957     0.18250
F722        F  0.82097542  0.89921557  0.74748674    -0.19510
C723        C  0.73823929  0.06660565  0.69768239    -0.20940
C724        C  0.77419912  0.06255755  0.71148522    -0.08990
C725        C  0.78951481  0.09150535  0.73195046     0.29870
C726        C  0.76955171  0.12377840  0.73767207    -0.20940
C727        C  0.73367177  0.12762432  0.72399789    -0.09000
C728        C  0.71798184  0.09861092  0.70417373     0.29880
F729        F  0.68374662  0.10178087  0.68975216    -0.19520
H730        H  0.72581284  0.04497880  0.68151396     0.18240
H731        H  0.78210857  0.14585074  0.75315572     0.18250
F732        F  0.82324156  0.08833006  0.74749357    -0.19510
C733        C  0.95081893  0.96829809  0.71612132    -0.20940
C734        C  0.97014372  0.99274221  0.69346664    -0.08990
C735        C  0.94995345  0.01635487  0.67030512     0.29870
C736        C  0.91137439  0.01578086  0.67053396    -0.20940
C737        C  0.89211493  0.99163223  0.69370526    -0.09000
C738        C  0.91245773  0.96773354  0.71640382     0.29880
F739        F  0.89535428  0.94503059  0.74042280    -0.19520
H740        H  0.96549025  0.95030758  0.73474090     0.18240
H741        H  0.89651204  0.03427203  0.65256905     0.18250
F742        F  0.96743886  0.03966291  0.64715057    -0.19510
C743        C  0.07612270  0.89973100  0.73258482    -0.20940
C744        C  0.09070849  0.92727012  0.71001140    -0.08990
C745        C  0.12604152  0.92223926  0.69492933     0.29870
C746        C  0.14612074  0.89027489  0.70246802    -0.20940
C747        C  0.13105324  0.86257400  0.72444430    -0.09000
C748        C  0.09589246  0.86763809  0.73957531     0.29880
F749        F  0.08063290  0.84146894  0.76123614    -0.19520
H750        H  0.04941559  0.90318748  0.74517809     0.18240
H751        H  0.17275722  0.88644351  0.68981539     0.18250
F752        F  0.14062151  0.94752808  0.67182562    -0.19510
C753        C  0.13176281  0.10078745  0.74490456    -0.20940
C754        C  0.12769416  0.12914013  0.71926883    -0.08990
C755        C  0.10350061  0.12449851  0.68947286     0.29870
C756        C  0.08360569  0.09200722  0.68556722    -0.20940
C757        C  0.08742128  0.06365739  0.71128732    -0.09000
C758        C  0.11154324  0.06839159  0.74121815     0.29880
F759        F  0.11483139  0.04206608  0.76739684    -0.19520
H760        H  0.14977133  0.10417829  0.76833623     0.18240
H761        H  0.06564034  0.08871387  0.66208560     0.18250
F762        F  0.09969752  0.15117040  0.66369731    -0.19510
C763        C  0.91216854  0.97273005  0.31876285    -0.20940
C764        C  0.89285142  0.99571332  0.29442360    -0.08990
C765        C  0.91292203  0.01871744  0.27080389     0.29870
C766        C  0.95130763  0.01851701  0.27151802    -0.20940
C767        C  0.97069388  0.99543118  0.29567570    -0.09000
C768        C  0.95064725  0.97260713  0.31954883     0.29880
F769        F  0.96816968  0.95076225  0.34418467    -0.19520
H770        H  0.89736992  0.95506937  0.33751870     0.18240
H771        H  0.96596404  0.03589855  0.25240556     0.18250
F772        F  0.89551666  0.04043190  0.24597975    -0.19510
C773        C  0.74410551  0.92365573  0.26210287    -0.20940
C774        C  0.77389248  0.92597887  0.28670135    -0.08990
C775        C  0.78339930  0.89490520  0.30753730     0.29870
C776        C  0.76396851  0.86220729  0.30320953    -0.20940
C777        C  0.73430898  0.85988660  0.27856004    -0.09000
C778        C  0.72426689  0.89107306  0.25824264     0.29880
F779        F  0.69619603  0.88975786  0.23376093    -0.19520
H780        H  0.73645063  0.94703052  0.24535570     0.18240
H781        H  0.77193279  0.83864078  0.31956249     0.18250
F782        F  0.81078287  0.89630552  0.33278491    -0.19510
C783        C  0.74200216  0.06470925  0.26346414    -0.20940
C784        C  0.77182384  0.06258669  0.28808013    -0.08990
C785        C  0.78090018  0.09371528  0.30897957     0.29870
C786        C  0.76150464  0.12644269  0.30417079    -0.20940
C787        C  0.73219292  0.12864863  0.27915572    -0.09000
C788        C  0.72208142  0.09730916  0.25927623     0.29880
F789        F  0.69415163  0.09864234  0.23462650    -0.19520
H790        H  0.73458908  0.04129548  0.24673455     0.18240
H791        H  0.76932274  0.15020845  0.32024133     0.18250
F792        F  0.80802303  0.09244353  0.33451909    -0.19510
C793        C  0.83429052  0.26212932  0.14201272    -0.20940
C794        C  0.86186367  0.28460457  0.15683172    -0.08990
C795        C  0.85596159  0.30097584  0.19145379     0.29870
C796        C  0.82366206  0.29404404  0.21097698    -0.20940
C797        C  0.79624742  0.27168653  0.19594370    -0.09000
C798        C  0.80167898  0.25602033  0.16110788     0.29880
F799        F  0.77564401  0.23424341  0.14576683    -0.19520
H800        H  0.83820511  0.24865634  0.11582637     0.18240
H801        H  0.81948619  0.30721400  0.23729691     0.18250
F802        F  0.88086024  0.32452128  0.20601977    -0.19510
C803        C  0.02910661  0.30455353  0.15149261    -0.20940
C804        C  0.99890450  0.28227486  0.15986860    -0.08990
C805        C  0.00220280  0.25645556  0.18864820     0.29870
C806        C  0.03507438  0.25320414  0.20837012    -0.20940
C807        C  0.06540711  0.27489103  0.19920142    -0.09000
C808        C  0.06204131  0.30083809  0.17071465     0.29880
F809        F  0.09058285  0.32296086  0.16164431    -0.19520
H810        H  0.02719386  0.32505903  0.13003878     0.18240
H811        H  0.03728482  0.23274875  0.22984634     0.18250
F812        F  0.97429467  0.23321571  0.19673676    -0.19510
C813        C  0.86033675  0.73350070  0.81301979    -0.20940
C814        C  0.86340261  0.70583314  0.83993148    -0.08990
C815        C  0.83354800  0.68220468  0.84579828     0.29870
C816        C  0.80109037  0.68702910  0.82604219    -0.20940
C817        C  0.79793523  0.71490120  0.79956091    -0.09000
C818        C  0.82798444  0.73784995  0.79273819     0.29880
F819        F  0.82546948  0.76546290  0.76783874    -0.19520
H820        H  0.88282481  0.75229367  0.80815552     0.18240
H821        H  0.77822390  0.66879556  0.83138564     0.18250
F822        F  0.83592142  0.65399999  0.87005076    -0.19510
C823        C  0.00426066  0.69184146  0.80651815    -0.20940
C824        C  0.99989677  0.70655316  0.84203680    -0.08990
C825        C  0.02818036  0.72836121  0.85669732     0.29870
C826        C  0.06013914  0.73452614  0.83656334    -0.20940
C827        C  0.06428688  0.71996102  0.80113226    -0.09000
C828        C  0.03593582  0.69878614  0.78605313     0.29880
F829        F  0.03954180  0.68343973  0.75231055    -0.19520
H830        H  0.98317053  0.67462948  0.79460901     0.18240
H831        H  0.08177702  0.75094958  0.84866044     0.18250
F832        F  0.02462600  0.74474257  0.88994316    -0.19510
C833        C  0.23880380  0.14739278  0.90146779    -0.20940
C834        C  0.21642686  0.15563585  0.93158324    -0.08990
C835        C  0.19061030  0.18451629  0.92863758     0.29870
C836        C  0.18740684  0.20454452  0.89607180    -0.20940
C837        C  0.20919222  0.19554269  0.86581017    -0.09000
C838        C  0.23519403  0.16700024  0.86883469     0.29880
F839        F  0.25731569  0.15817924  0.84018331    -0.19520
H840        H  0.25924846  0.12581387  0.90324349     0.18240
H841        H  0.16688709  0.22602783  0.89399144     0.18250
F842        F  0.16739986  0.19242022  0.95665887    -0.19510
C843        C  0.24115490  0.14742574  0.09672536    -0.20940
C844        C  0.21740461  0.15459185  0.06734448    -0.08990
C845        C  0.19059399  0.18243700  0.07092487     0.29870
C846        C  0.18786689  0.20270546  0.10333267    -0.20940
C847        C  0.21119906  0.19498165  0.13283262    -0.09000
C848        C  0.23809521  0.16734817  0.12924355     0.29880
F849        F  0.26163488  0.15981169  0.15718330    -0.19520
H850        H  0.26228412  0.12657565  0.09438034     0.18240
H851        H  0.16661089  0.22339814  0.10591543     0.18250
F852        F  0.16613470  0.18915795  0.04359775    -0.19510
C853        C  0.67134316  0.81179332  0.92705842    -0.20940
C854        C  0.64223435  0.83704135  0.93087336    -0.08990
C855        C  0.61759597  0.84186974  0.90160896     0.29870
C856        C  0.62249468  0.82231469  0.86903866    -0.20940
C857        C  0.65159535  0.79717704  0.86523482    -0.09000
C858        C  0.67592137  0.79183307  0.89460335     0.29880
F859        F  0.70484019  0.76848674  0.89141308    -0.19520
H860        H  0.69086675  0.80784219  0.94916006     0.18240
H861        H  0.60322111  0.82653566  0.84675084     0.18250
F862        F  0.58824600  0.86467681  0.90483511    -0.19510
C863        C  0.67359922  0.82935251  0.12627994    -0.20940
C864        C  0.65644398  0.79534242  0.13178050    -0.08990
C865        C  0.63299881  0.78139920  0.10458729     0.29870
C866        C  0.62650128  0.80163667  0.07259067    -0.20940
C867        C  0.64348407  0.83588605  0.06715058    -0.09000
C868        C  0.66757280  0.84931076  0.09415508     0.29880
F869        F  0.68603530  0.88124900  0.08913863    -0.19520
H870        H  0.69179790  0.84047946  0.14701165     0.18240
H871        H  0.60775461  0.79078413  0.05222422     0.18250
F872        F  0.61501951  0.74920469  0.10975925    -0.19510
C873        C  0.91072557  0.31664177  0.97981791    -0.20940
C874        C  0.93387217  0.29218580  0.96085802    -0.08990
C875        C  0.95710432  0.26898485  0.98133987     0.29870
C876        C  0.95672560  0.26995535  0.01972140    -0.20940
C877        C  0.93327954  0.29401846  0.03877821    -0.09000
C878        C  0.91047717  0.31774541  0.01830430     0.29880
F879        F  0.88840034  0.34244621  0.03540334    -0.19520
H880        H  0.89288949  0.33511383  0.96473516     0.18240
H881        H  0.97415403  0.25096993  0.03462119     0.18250
F882        F  0.97906756  0.24412025  0.96435056    -0.19510
C883        C  0.85972258  0.25563431  0.81362835    -0.20940
C884        C  0.86250054  0.28093272  0.84277080    -0.08990
C885        C  0.83185215  0.30270716  0.85154309     0.29870
C886        C  0.79916093  0.29870764  0.83195086    -0.20940
C887        C  0.79648466  0.27349999  0.80283317    -0.09000
C888        C  0.82719636  0.25215860  0.79358037     0.29880
F889        F  0.82542429  0.22707274  0.76610190    -0.19520
H890        H  0.88273809  0.23814621  0.80655534     0.18240
H891        H  0.77589415  0.31576092  0.83931150     0.18250
F892        F  0.83370661  0.32860226  0.87825654    -0.19510
C893        C  0.02788189  0.30584343  0.84525667    -0.20940
C894        C  0.99872731  0.28157092  0.83920734    -0.08990
C895        C  0.00224277  0.25434616  0.81183648     0.29870
C896        C  0.03450444  0.25149528  0.79122616    -0.20940
C897        C  0.06388545  0.27523164  0.79804027    -0.09000
C898        C  0.06017995  0.30273993  0.82496295     0.29880
F899        F  0.08786730  0.32676701  0.83154771    -0.19520
H900        H  0.02558440  0.32735715  0.86566080     0.18240
H901        H  0.03711614  0.22980963  0.77104196     0.18250
F902        F  0.97510229  0.22952886  0.80605134    -0.19510
C903        C  0.95184520  0.66606495  0.01854523    -0.20940
C904        C  0.92883301  0.69009210  0.03822258    -0.08990
C905        C  0.90589941  0.71418435  0.01839523     0.29870
C906        C  0.90627187  0.71435505  0.98004213    -0.20940
C907        C  0.92951545  0.69071077  0.96029274    -0.09000
C908        C  0.95217449  0.66622665  0.98001117     0.29880
F909        F  0.97420516  0.64207066  0.96210567    -0.19520
H910        H  0.96954455  0.64703372  0.03306205     0.18240
H911        H  0.88902968  0.73394003  0.96571528     0.18250
F912        F  0.88428886  0.73891649  0.03602949    -0.19510
C913        C  0.83626916  0.72869728  0.14467413    -0.20940
C914        C  0.86359382  0.70542217  0.15879122    -0.08990
C915        C  0.85845972  0.68944706  0.19369115     0.29870
C916        C  0.82654943  0.69670894  0.21378986    -0.20940
C917        C  0.79902330  0.71933301  0.19916032    -0.09000
C918        C  0.80422261  0.73545236  0.16447896     0.29880
F919        F  0.77821849  0.75780825  0.14972865    -0.19520
H920        H  0.83983315  0.74193933  0.11830289     0.18240
H921        H  0.82260198  0.68334101  0.24005129     0.18250
F922        F  0.88359402  0.66572446  0.20777167    -0.19510
C923        C  0.03781900  0.69610168  0.21099701    -0.20940
C924        C  0.06571191  0.71712401  0.19503371    -0.08990
C925        C  0.06071288  0.73107013  0.15936095     0.29870
C926        C  0.02815490  0.72442575  0.14027925    -0.20940
C927        C  0.00017677  0.70318957  0.15602104    -0.09000
C928        C  0.00554963  0.68868385  0.19157166     0.29880
F929        F  0.98009778  0.66648831  0.20721610    -0.19520
H930        H  0.04157345  0.68430242  0.23803544     0.18240
H931        H  0.02461789  0.73650994  0.11335721     0.18250
F932        F  0.08713458  0.75165461  0.14311985    -0.19510
C933        C  0.60311320  0.97470663  0.97685291    -0.20940
C934        C  0.62703515  0.95559540  0.00050901    -0.08990
C935        C  0.64974914  0.97599556  0.02419894     0.29870
C936        C  0.64851163  0.01433406  0.02414135    -0.20940
C937        C  0.62488934  0.03354426  0.00039540    -0.09000
C938        C  0.60194989  0.01328061  0.97675921     0.29880
F939        F  0.57805170  0.03066897  0.95400706    -0.19520
H940        H  0.58515611  0.95971267  0.95851735     0.18240
H941        H  0.66705118  0.02913933  0.04204891     0.18250
F942        F  0.67449516  0.95899288  0.04633347    -0.19510
C943        C  0.62770028  0.18776851  0.92702347    -0.20940
C944        C  0.64264777  0.15231111  0.93151203    -0.08990
C945        C  0.66487280  0.13777142  0.90349664     0.29870
C946        C  0.67099470  0.15786644  0.87147845    -0.20940
C947        C  0.65587000  0.19310771  0.86699043    -0.09000
C948        C  0.63444536  0.20814714  0.89521693     0.29880
F949        F  0.61855463  0.24168002  0.89131006    -0.19520
H950        H  0.61031721  0.19957761  0.94804880     0.18240
H951        H  0.68767930  0.14582786  0.85000315     0.18250
F952        F  0.68153065  0.10461313  0.90733038    -0.19510
C953        C  0.62733026  0.18868202  0.07192553    -0.20940
C954        C  0.64086770  0.15259305  0.06803792    -0.08990
C955        C  0.66136951  0.13716607  0.09695937     0.29870
C956        C  0.66728372  0.15705152  0.12910850    -0.20940
C957        C  0.65366354  0.19296465  0.13300362    -0.09000
C958        C  0.63389111  0.20885041  0.10394750     0.29880
F959        F  0.61963109  0.24317949  0.10704449    -0.19520
H960        H  0.61126710  0.20121327  0.05023760     0.18240
H961        H  0.68282586  0.14432933  0.15108720     0.18250
F962        F  0.67674721  0.10332028  0.09389824    -0.19510
C963        C  0.25267367  0.01609022  0.02028153    -0.20940
C964        C  0.22704510  0.03513579  0.99848401    -0.08990
C965        C  0.20248786  0.01479110  0.97670817     0.29870
C966        C  0.20359429  0.97640836  0.97683485    -0.20940
C967        C  0.22906647  0.95727058  0.99866709    -0.09000
C968        C  0.25384008  0.97756371  0.02033539     0.29880
F969        F  0.27965229  0.96022649  0.04094894    -0.19520
H970        H  0.27208661  0.03112884  0.03703658     0.18240
H971        H  0.18379027  0.96153535  0.96040306     0.18250
F972        F  0.17640352  0.03195870  0.95630634    -0.19510
C973        C  0.19341709  0.80796094  0.92894075    -0.20940
C974        C  0.21876613  0.83704228  0.93149495    -0.08990
C975        C  0.24053223  0.84541479  0.90080500     0.29870
C976        C  0.23620731  0.82582446  0.86821282    -0.20940
C977        C  0.21071673  0.79701093  0.86560046    -0.09000
C978        C  0.18962125  0.78786480  0.89644847     0.29880
F979        F  0.16440462  0.76053643  0.89480685    -0.19520
H980        H  0.17598429  0.80112323  0.95199134     0.18240
H981        H  0.25319564  0.83302391  0.84491440     0.18250
F982        F  0.26664669  0.87189293  0.90246764    -0.19510
C983        C  0.23609828  0.80332787  0.07285982    -0.20940
C984        C  0.21966099  0.83812004  0.06827287    -0.08990
C985        C  0.19717432  0.85193512  0.09648268     0.29870
C986        C  0.19202221  0.83175107  0.12859346    -0.20940
C987        C  0.20828149  0.79704558  0.13298633    -0.09000
C988        C  0.23020554  0.78277167  0.10474452     0.29880
F989        F  0.24712849  0.74973907  0.10859777    -0.19520
H990        H  0.25379640  0.79208793  0.05179259     0.18240
H991        H  0.17491646  0.84315859  0.15008464     0.18250
F992        F  0.17908105  0.88433551  0.09266640    -0.19510
loop_ 
_geom_bond_atom_site_label_1 
_geom_bond_atom_site_label_2 
_geom_bond_distance 
_geom_bond_site_symmetry_2 
_ccdc_geom_bond_type 
C1            C2   1.401       .  A
C1            C6   1.407       .  A
C1          C974   1.487       .  S
C2            C3   1.402   1_556  A
C2            H7   1.083   1_556  S
C3            C4   1.409       .  A
C3          C984   1.488       .  S
C4            C5   1.407   1_554  A
C4            H8   1.083       .  S
C5            C6   1.407       .  A
C5          C967   1.491       .  S
C6            H9   1.083       .  S
C10          C11   1.400   1_554  A
C10          C15   1.407       .  A
C10         C954   1.488       .  S
C11          C12   1.401       .  A
C11          H16   1.084       .  S
C12          C13   1.410       .  A
C12         C944   1.487       .  S
C13          C14   1.408       .  A
C13          H17   1.083       .  S
C14          C15   1.408   1_556  A
C14         C937   1.492   1_556  S
C15          H18   1.083       .  S
C19          C20   1.401       .  A
C19          C24   1.410       .  A
C19         C927   1.487   1_655  S
C20          C21   1.398       .  A
C20          H25   1.083       .  S
C21          C22   1.407       .  A
C21         C914   1.485       .  S
C22          C23   1.408       .  A
C22          H26   1.083       .  S
C23          C24   1.409       .  A
C23         C904   1.494       .  S
C24          H27   1.083       .  S
C28          C29   1.399       .  A
C28          C33   1.409       .  A
C28         C884   1.485       .  S
C29          C30   1.397       .  A
C29          H34   1.084       .  S
C30          C31   1.407       .  A
C30         C894   1.483       .  S
C31          C32   1.409       .  A
C31          H35   1.083       .  S
C32          C33   1.409       .  A
C32         C874   1.493       .  S
C33          H36   1.083       .  S
C37          C38   1.409       .  A
C37          C42   1.400       .  A
C37         C854   1.482       .  S
C38          C39   1.408       .  A
C38          H43   1.084       .  S
C39          C40   1.408   1_556  A
C39         C934   1.493   1_556  S
C40          C41   1.406       .  A
C40          H44   1.083       .  S
C41          C42   1.398   1_554  A
C41         C867   1.483       .  S
C42          H45   1.084       .  S
C46          C47   1.407       .  A
C46          C51   1.395       .  A
C46         C834   1.481       .  S
C47          C48   1.409       .  A
C47          H52   1.083       .  S
C48          C49   1.408   1_556  A
C48         C964   1.490       .  S
C49          C50   1.408       .  A
C49          H53   1.084       .  S
C50          C51   1.396   1_554  A
C50         C844   1.479       .  S
C51          H54   1.084       .  S
C55          C56   1.411       .  A
C55          C60   1.401       .  A
C55         C824   1.488       .  S
C56          C57   1.409       .  A
C56          H61   1.082       .  S
C57          C58   1.408       .  A
C57         C907   1.493       .  S
C58          C59   1.406       .  A
C58          H62   1.083       .  S
C59          C60   1.398       .  A
C59         C814   1.484       .  S
C60          H63   1.083       .  S
C64          C65   1.410       .  A
C64          C69   1.402       .  A
C64         C794   1.489       .  S
C65          C66   1.408       .  A
C65          H70   1.083       .  S
C66          C67   1.408       .  A
C66         C877   1.495       .  S
C67          C68   1.408       .  A
C67          H71   1.083       .  S
C68          C69   1.400       .  A
C68         C804   1.488       .  S
C69          H72   1.082       .  S
C73          C74   1.401       .  A
C73          C78   1.408       .  A
C73         C774   1.485       .  S
C74          C75   1.400   1_565  A
C74          H79   1.084       .  S
C75          C76   1.407       .  A
C75         C784   1.486       .  S
C76          C77   1.407   1_545  A
C76          H80   1.083       .  S
C77          C78   1.407       .  A
C77         C764   1.490       .  S
C78          H81   1.083       .  S
C82          C83   1.399   1_545  A
C82          C87   1.408       .  A
C82         C757   1.481       .  S
C83          C84   1.398       .  A
C83          H88   1.083       .  S
C84          C85   1.408       .  A
C84         C744   1.485       .  S
C85          C86   1.410       .  A
C85          H89   1.084       .  S
C86          C87   1.409   1_565  A
C86         C734   1.494   1_455  S
C87          H90   1.083       .  S
C91          C92   1.408       .  A
C91          C96   1.399       .  A
C91         C714   1.489       .  S
C92          C93   1.409       .  A
C92          H97   1.083       .  S
C93          C94   1.409   1_565  A
C93         C737   1.495       .  S
C94          C95   1.410       .  A
C94          H98   1.083       .  S
C95          C96   1.402   1_545  A
C95         C724   1.489       .  S
C96          H99   1.083       .  S
C100        C101   1.407       .  A
C100        C105   1.400   1_545  A
C100        C704   1.486       .  S
C101        C102   1.407   1_545  A
C101        H106   1.083       .  S
C102        C103   1.407       .  A
C102        C767   1.491   1_455  S
C103        C104   1.408       .  A
C103        H107   1.083       .  S
C104        C105   1.400       .  A
C104        C694   1.485       .  S
C105        H108   1.083       .  S
C109        C110   1.400       .  A
C109        C114   1.408       .  A
C109        C684   1.482       .  S
C110        C111   1.401       .  A
C110        H115   1.084       .  S
C111        C112   1.408       .  A
C111        C674   1.488       .  S
C112        C113   1.407       .  A
C112        H116   1.083       .  S
C113        C114   1.406       .  A
C113        C664   1.491       .  S
C114        H117   1.084       .  S
Fe118       O134   2.030       .  S
Fe118       O124   2.099       .  S
Fe118       O131   2.106       .  S
Fe118       O123   2.035       .  S
Fe118       O129   1.942       .  S
Fe119       O122   2.037       .  S
Fe119       O126   2.109       .  S
Fe119       O130   2.031       .  S
Fe119       O135   2.101       .  S
Fe119       O129   1.942       .  S
Fe120       O138   2.105       .  S
Fe120       O125   2.028       .  S
Fe120       O132   2.029       .  S
Fe120       O121   2.105       .  S
Fe120       O129   1.945       .  S
O121        C128   1.278       .  A
O122        C136   1.266       .  A
O123        C128   1.266       .  A
O124        C127   1.275       .  A
O125        C137   1.263       .  A
O126        C139   1.277       .  A
C127        C787   1.473       .  S
C127        O132   1.263       .  A
C128        C654   1.473       .  S
O130        C133   1.263       .  A
O131        C133   1.276       .  A
C133        C687   1.470       .  S
O134        C139   1.264       .  A
O135        C137   1.276       .  A
C136        C797   1.474       .  S
C136        O138   1.278       .  A
C137        C644   1.472       .  S
C139        C957   1.476       .  S
C140        C141   1.400       .  A
C140        C145   1.410       .  A
C140        C624   1.487       .  S
C141        C142   1.398       .  A
C141        H146   1.084       .  S
C142        C143   1.407       .  A
C142        C634   1.484       .  S
C143        C144   1.408       .  A
C143        H147   1.082       .  S
C144        C145   1.409       .  A
C144        C614   1.494       .  S
C145        H148   1.083       .  S
C149        C150   1.402       .  A
C149        C154   1.409       .  A
C149        C604   1.487       .  S
C150        C151   1.401       .  A
C150        H155   1.082       .  S
C151        C152   1.407       .  A
C151        C657   1.487       .  S
C152        C153   1.407       .  A
C152        H156   1.083       .  S
C153        C154   1.407       .  A
C153        C594   1.492       .  S
C154        H157   1.084       .  S
Fe158       O174   2.108       .  S
Fe158       O164   2.032       .  S
Fe158       O171   2.033       .  S
Fe158       O163   2.095       .  S
Fe158       O169   1.952       .  S
Fe159       O162   2.102       .  S
Fe159       O166   2.028       .  S
Fe159       O170   2.097       .  S
Fe159       O175   2.033       .  S
Fe159       O169   1.957       .  S
Fe160       O178   2.023       .  S
Fe160       O165   2.104       .  S
Fe160       O172   2.100       .  S
Fe160       O161   2.031       .  S
Fe160       O169   1.957       .  S
O161        C168   1.264       .  A
O162        C176   1.275       .  A
O163        C168   1.275       .  A
O164        C167   1.264       .  A
O165        C177   1.277       .  A
O166        C179   1.265       .  A
C167        C584   1.478       .  S
C167        O172   1.276       .  A
C168        C887   1.475       .  S
O170        C173   1.273       .  A
O171        C173   1.261       .  A
C173        C727   1.474       .  S
O174        C179   1.279       .  A
O175        C177   1.264       .  A
C176        C637   1.471       .  S
C176        O178   1.262       .  A
C177        C947   1.473       .  S
C179        C607   1.476       .  S
C180        C181   1.399       .  A
C180        C185   1.409       .  A
C180        C647   1.485       .  S
C181        C182   1.395       .  A
C181        H186   1.084       .  S
C182        C183   1.405       .  A
C182        C574   1.470       .  S
C183        C184   1.409       .  A
C183        H187   1.084       .  S
C184        C185   1.410       .  A
C184        C564   1.492       .  S
C185        H188   1.083       .  S
C189        C190   1.407       .  A
C189        C194   1.399       .  A
C189        C544   1.485       .  S
C190        C191   1.408       .  A
C190        H195   1.083       .  S
C191        C192   1.408       .  A
C191        C667   1.492       .  S
C192        C193   1.409       .  A
C192        H196   1.083       .  S
C193        C194   1.400       .  A
C193        C557   1.484       .  S
C194        H197   1.084       .  S
Fe198       O214   2.098       .  S
Fe198       O204   2.027       .  S
Fe198       O211   2.033       .  S
Fe198       O203   2.105       .  S
Fe198       O209   1.958       .  S
Fe199       O202   2.108       .  S
Fe199       O206   2.033       .  S
Fe199       O210   2.093       .  S
Fe199       O215   2.035       .  S
Fe199       O209   1.953       .  S
Fe200       O218   2.025       .  S
Fe200       O205   2.094       .  S
Fe200       O212   2.098       .  S
Fe200       O201   2.032       .  S
Fe200       O209   1.957       .  S
O201        C208   1.264       .  A
O202        C216   1.279       .  A
O203        C208   1.277       .  A
O204        C207   1.261       .  A
O205        C217   1.272       .  A
O206        C219   1.265       .  A
C207        C577   1.463       .  S
C207        O212   1.274       .  A
C208        C917   1.472       .  S
O210        C213   1.275       .  A
O211        C213   1.264       .  A
C213        C777   1.477       .  S
O214        C219   1.276       .  A
O215        C217   1.262       .  A
C216        C554   1.473       .  S
C216        O218   1.264       .  A
C217        C864   1.470       .  S
C219        C534   1.477       .  S
C220        C221   1.408       .  A
C220        C225   1.401       .  A
C220        C524   1.489       .  S
C221        C222   1.407       .  A
C221        H226   1.083       .  S
C222        C223   1.406       .  A
C222        C514   1.489       .  S
C223        C224   1.409       .  A
C223        H227   1.083       .  S
C224        C225   1.402       .  A
C224        C537   1.488       .  S
C225        H228   1.083       .  S
C229        C230   1.401       .  A
C229        C234   1.408       .  A
C229        C587   1.489       .  S
C230        C231   1.402       .  A
C230        H235   1.083       .  S
C231        C232   1.410       .  A
C231        C504   1.489       .  S
C232        C233   1.408       .  A
C232        H236   1.083       .  S
C233        C234   1.408       .  A
C233        C567   1.493       .  S
C234        H237   1.083       .  S
C238        C239   1.408       .  A
C238        C243   1.398       .  A
C238        C494   1.483       .  S
C239        C240   1.409       .  A
C239        H244   1.083       .  S
C240        C241   1.409       .  A
C240        C617   1.493       .  S
C241        C242   1.407       .  A
C241        H245   1.083       .  S
C242        C243   1.399       .  A
C242        C484   1.485       .  S
C243        H246   1.084       .  S
Fe247       O263   2.035       .  S
Fe247       O253   2.105       .  S
Fe247       O260   2.099       .  S
Fe247       O252   2.027       .  S
Fe247       O258   1.953       .  S
Fe248       O251   2.032       .  S
Fe248       O255   2.107       .  S
Fe248       O259   2.025       .  S
Fe248       O264   2.099       .  S
Fe248       O258   1.952       .  S
Fe249       O267   2.093       .  S
Fe249       O254   2.034       .  S
Fe249       O261   2.030       .  S
Fe249       O250   2.113       .  S
Fe249       O258   1.952       .  S
O250        C257   1.279       .  A
O251        C265   1.264       .  A
O252        C257   1.264       .  A
O253        C256   1.274       .  A
O254        C266   1.266       .  A
O255        C268   1.279       .  A
C256        C527   1.474       .  S
C256        O261   1.261       .  A
C257        C717   1.477       .  S
O259        C262   1.261       .  A
O260        C262   1.274       .  A
C262        C817   1.471       .  S
O263        C268   1.266       .  A
O264        C266   1.277       .  A
C265        C487   1.474       .  S
C265        O267   1.274       .  A
C266        C857   1.473       .  S
C268        C507   1.474       .  S
C269        C270   1.408       .  A
C269        C274   1.400       .  A
C269        C474   1.488       .  S
C270        C271   1.407       .  A
C270        H275   1.083       .  S
C271        C272   1.407       .  A
C271        C517   1.492       .  S
C272        C273   1.410       .  A
C272        H276   1.084       .  S
C273        C274   1.401       .  A
C273        C464   1.486       .  S
C274        H277   1.083       .  S
C278        C279   1.401       .  A
C278        C283   1.410       .  A
C278        C447   1.486       .  S
C279        C280   1.400       .  A
C279        H284   1.083       .  S
C280        C281   1.407       .  A
C280        C454   1.487       .  S
C281        C282   1.407       .  A
C281        H285   1.083       .  S
C282        C283   1.408       .  A
C282        C434   1.492       .  S
C283        H286   1.083       .  S
Fe287       O303   2.106       .  S
Fe287       O293   2.033       .  S
Fe287       O300   2.025       .  S
Fe287       O292   2.100       .  S
Fe287       O298   1.957       .  S
Fe288       O291   2.099       .  S
Fe288       O295   2.031       .  S
Fe288       O299   2.104       .  S
Fe288       O304   2.025       .  S
Fe288       O298   1.958       .  S
Fe289       O307   2.030       .  S
Fe289       O294   2.108       .  S
Fe289       O301   2.095       .  S
Fe289       O290   2.028       .  S
Fe289       O298   1.953       .  S
O290        C297   1.263       .  A
O291        C305   1.274       .  A
O292        C297   1.276       .  A
O293        C296   1.264       .  A
O294        C306   1.279       .  A
O295        C308   1.264       .  A
C296        C977   1.476       .  S
C296        O301   1.275       .  A
C297        C497   1.474       .  S
O299        C302   1.276       .  A
O300        C302   1.262       .  A
C302        C477   1.475       .  S
O303        C308   1.277       .  A
O304        C306   1.264       .  A
C305        C827   1.473       .  S
C305        O307   1.261       .  A
C306        C444   1.474       .  S
C308        C747   1.473       .  S
C309        C310   1.408       .  A
C309        C314   1.398       .  A
C309        C417   1.484       .  S
C310        C311   1.409       .  A
C310        H315   1.083       .  S
C311        C312   1.409       .  A
C311        C597   1.493       .  S
C312        C313   1.407       .  A
C312        H316   1.083       .  S
C313        C314   1.397       .  A
C313        C424   1.485       .  S
C314        H317   1.083       .  S
Fe318       O334   2.033       .  S
Fe318       O324   2.098       .  S
Fe318       O331   2.111       .  S
Fe318       O323   2.031       .  S
Fe318       O329   1.949       .  S
Fe319       O322   2.030       .  S
Fe319       O326   2.096       .  S
Fe319       O330   2.023       .  S
Fe319       O335   2.103       .  S
Fe319       O329   1.954       .  S
Fe320       O338   2.107       .  S
Fe320       O325   2.018       .  S
Fe320       O332   2.027       .  S
Fe320       O321   2.099       .  S
Fe320       O329   1.952       .  S
O321        C328   1.276       .  A
O322        C336   1.264       .  A
O323        C328   1.264       .  A
O324        C327   1.276       .  A
O325        C337   1.260       .  A
O326        C339   1.273       .  A
C327        C414   1.474       .  S
C327        O332   1.263       .  A
C328        C754   1.472       .  S
O330        C333   1.264       .  A
O331        C333   1.280       .  A
C333        C897   1.472       .  S
O334        C339   1.262       .  A
O335        C337   1.275       .  A
C336        C627   1.472       .  S
C336        O338   1.278       .  A
C337        C837   1.469       .  S
C339        C457   1.473       .  S
C340        C341   1.410       .  A
C340        C345   1.401       .  A
C340        C394   1.487       .  S
C341        C342   1.408       .  A
C341        H346   1.083       .  S
C342        C343   1.407       .  A
C342        C437   1.492       .  S
C343        C344   1.407       .  A
C343        H347   1.083       .  S
C344        C345   1.401       .  A
C344        C404   1.488       .  S
C345        H348   1.083       .  S
Fe349       O365   2.034       .  S
Fe349       O355   2.106       .  S
Fe349       O362   2.100       .  S
Fe349       O354   2.026       .  S
Fe349       O360   1.941       .  S
Fe350       O353   2.035       .  S
Fe350       O357   2.106       .  S
Fe350       O361   2.027       .  S
Fe350       O366   2.110       .  S
Fe350       O360   1.940       .  S
Fe351       O369   2.101       .  S
Fe351       O356   2.028       .  S
Fe351       O363   2.030       .  S
Fe351       O352   2.114       .  S
Fe351       O360   1.944       .  S
O352        C359   1.279       .  A
O353        C367   1.263       .  A
O354        C359   1.263       .  A
O355        C358   1.276       .  A
O356        C368   1.265       .  A
O357        C370   1.278       .  A
C358        C697   1.471       .  S
C358        O363   1.263       .  A
C359        C467   1.473       .  S
O361        C364   1.263       .  A
O362        C364   1.275       .  A
C364        C547   1.472       .  S
O365        C370   1.266       .  A
O366        C368   1.280       .  A
C367        C924   1.474       .  S
C367        O369   1.275       .  A
C368        C397   1.474       .  S
C370        C987   1.473       .  S
Fe371       O387   2.097       .  S
Fe371       O377   2.018       .  S
Fe371       O384   2.027       .  S
Fe371       O376   2.102       .  S
Fe371       O382   1.954       .  S
Fe372       O375   2.108       .  S
Fe372       O379   2.031       .  S
Fe372       O383   2.097       .  S
Fe372       O388   2.034       .  S
Fe372       O382   1.950       .  S
Fe373       O391   2.028       .  S
Fe373       O378   2.098       .  S
Fe373       O385   2.102       .  S
Fe373       O374   2.034       .  S
Fe373       O382   1.953       .  S
O374        C381   1.265       .  A
O375        C389   1.278       .  A
O376        C381   1.276       .  A
O377        C380   1.261       .  A
O378        C390   1.274       .  A
O379        C392   1.265       .  A
C380        C847   1.468       .  S
C380        O385   1.276       .  A
C381        C677   1.473       .  S
O383        C386   1.276       .  A
O384        C386   1.263       .  A
C386        C427   1.474       .  S
O387        C392   1.276       .  A
O388        C390   1.263       .  A
C389        C807   1.476       .  S
C389        O391   1.265       .  A
C390        C407   1.473       .  S
C392        C707   1.474       .  S
C393        C394   1.411       .  A
C393        C398   1.399       .  A
C393        H400   1.083       .  S
C394        C395   1.405       .  A
C395        C396   1.396       .  A
C395        F402   1.358       .  S
C396        C397   1.406       .  A
C396        H401   1.084       .  S
C397        C398   1.402       .  A
C398        F399   1.357       .  S
C403        C404   1.410       .  A
C403        C408   1.400       .  A
C403        H410   1.083       .  S
C404        C405   1.408       .  A
C405        C406   1.395       .  A
C405        F412   1.357       .  S
C406        C407   1.404       .  A
C406        H411   1.084       .  S
C407        C408   1.404       .  A
C408        F409   1.358       .  S
C413        C414   1.400       .  A
C413        C418   1.397       .  A
C413        H420   1.083       .  S
C414        C415   1.411       .  A
C415        C416   1.395       .  A
C415        F422   1.358       .  S
C416        C417   1.401       .  A
C416        H421   1.083       .  S
C417        C418   1.413       .  A
C418        F419   1.357       .  S
C423        C424   1.402       .  A
C423        C428   1.395       .  A
C423        H430   1.083       .  S
C424        C425   1.413       .  A
C425        C426   1.397       .  A
C425        F432   1.357       .  S
C426        C427   1.399       .  A
C426        H431   1.083       .  S
C427        C428   1.410       .  A
C428        F429   1.358       .  S
C433        C434   1.405       .  A
C433        C438   1.397       .  A
C433        H440   1.083       .  S
C434        C435   1.410       .  A
C435        C436   1.405       .  A
C435        F442   1.357       .  S
C436        C437   1.408       .  A
C436        H441   1.083       .  S
C437        C438   1.408       .  A
C438        F439   1.357       .  S
C443        C444   1.406       .  A
C443        C448   1.395       .  A
C443        H450   1.084       .  S
C444        C445   1.402       .  A
C445        C446   1.400       .  A
C445        F452   1.357       .  S
C446        C447   1.411       .  A
C446        H451   1.083       .  S
C447        C448   1.405       .  A
C448        F449   1.358       .  S
C453        C454   1.410       .  A
C453        C458   1.399       .  A
C453        H460   1.083       .  S
C454        C455   1.408       .  A
C455        C456   1.394       .  A
C455        F462   1.357       .  S
C456        C457   1.404       .  A
C456        H461   1.084       .  S
C457        C458   1.403       .  A
C458        F459   1.358       .  S
C463        C464   1.403       .  A
C463        C468   1.394       .  A
C463        H470   1.083       .  S
C464        C465   1.412       .  A
C465        C466   1.400       .  A
C465        F472   1.358       .  S
C466        C467   1.401       .  A
C466        H471   1.084       .  S
C467        C468   1.407       .  A
C468        F469   1.358       .  S
C473        C474   1.411       .  A
C473        C478   1.400       .  A
C473        H480   1.083       .  S
C474        C475   1.406       .  A
C475        C476   1.394       .  A
C475        F482   1.358       .  S
C476        C477   1.406       .  A
C476        H481   1.084       .  S
C477        C478   1.402       .  A
C478        F479   1.357       .  S
C483        C484   1.410       .  A
C483        C488   1.398       .  A
C483        H490   1.083       .  S
C484        C485   1.405       .  A
C485        C486   1.396       .  A
C485        F492   1.358       .  S
C486        C487   1.406       .  A
C486        H491   1.084       .  S
C487        C488   1.402       .  A
C488        F489   1.357       .  S
C493        C494   1.401       .  A
C493        C498   1.395       .  A
C493        H500   1.085       .  S
C494        C495   1.412       .  A
C495        C496   1.399       .  A
C495        F502   1.358       .  S
C496        C497   1.400       .  A
C496        H501   1.084       .  S
C497        C498   1.410       .  A
C498        F499   1.358       .  S
C503        C504   1.410       .  A
C503        C508   1.400       .  A
C503        H510   1.083       .  S
C504        C505   1.408       .  A
C505        C506   1.396       .  A
C505        F512   1.357       .  S
C506        C507   1.404       .  A
C506        H511   1.084       .  S
C507        C508   1.403       .  A
C508        F509   1.358       .  S
C513        C514   1.404       .  A
C513        C518   1.399       .  A
C513        H520   1.083       .  S
C514        C515   1.408       .  A
C515        C516   1.404       .  A
C515        F522   1.358       .  S
C516        C517   1.407       .  A
C516        H521   1.083       .  S
C517        C518   1.409       .  A
C518        F519   1.357       .  S
C523        C524   1.410       .  A
C523        C528   1.401       .  A
C523        H530   1.083       .  S
C524        C525   1.407       .  A
C525        C526   1.395       .  A
C525        F532   1.357       .  S
C526        C527   1.404       .  A
C526        H531   1.084       .  S
C527        C528   1.403       .  A
C528        F529   1.357       .  S
C533        C534   1.407       .  A
C533        C538   1.396       .  A
C533        H540   1.084       .  S
C534        C535   1.403       .  A
C535        C536   1.399       .  A
C535        F542   1.357       .  S
C536        C537   1.410       .  A
C536        H541   1.083       .  S
C537        C538   1.406       .  A
C538        F539   1.358       .  S
C543        C544   1.410       .  A
C543        C548   1.398       .  A
C543        H550   1.083       .  S
C544        C545   1.406       .  A
C545        C546   1.395       .  A
C545        F552   1.358       .  S
C546        C547   1.405       .  A
C546        H551   1.084       .  S
C547        C548   1.402       .  A
C548        F549   1.357       .  S
C553        C554   1.407       .  A
C553        C558   1.395       .  A
C553        H560   1.084       .  S
C554        C555   1.402       .  A
C555        C556   1.399       .  A
C555        F562   1.357       .  S
C556        C557   1.410       .  A
C556        H561   1.083       .  S
C557        C558   1.404       .  A
C558        F559   1.358       .  S
C563        C564   1.407       .  A
C563        C568   1.404       .  A
C563        H570   1.084       .  S
C564        C565   1.408       .  A
C565        C566   1.398       .  A
C565        F572   1.357       .  S
C566        C567   1.405       .  A
C566        H571   1.084       .  S
C567        C568   1.410       .  A
C568        F569   1.357       .  S
C573        C574   1.405       .  A
C573        C578   1.398       .  A
C573        H580   1.084       .  S
C574        C575   1.402       .  A
C575        C576   1.397       .  A
C575        F582   1.357       .  S
C576        C577   1.404       .  A
C576        H581   1.084       .  S
C577        C578   1.401       .  A
C578        F579   1.357       .  S
C583        C584   1.407       .  A
C583        C588   1.395       .  A
C583        H590   1.084       .  S
C584        C585   1.403       .  A
C585        C586   1.400       .  A
C585        F592   1.357       .  S
C586        C587   1.411       .  A
C586        H591   1.083       .  S
C587        C588   1.406       .  A
C588        F589   1.358       .  S
C593        C594   1.407       .  A
C593        C598   1.404       .  A
C593        H600   1.083       .  S
C594        C595   1.409       .  A
C595        C596   1.398       .  A
C595        F602   1.357       .  S
C596        C597   1.405       .  A
C596        H601   1.083       .  S
C597        C598   1.410       .  A
C598        F599   1.358       .  S
C603        C604   1.402       .  A
C603        C608   1.395       .  A
C603        H610   1.084       .  S
C604        C605   1.413       .  A
C605        C606   1.400       .  A
C605        F612   1.357       .  S
C606        C607   1.401       .  A
C606        H611   1.084       .  S
C607        C608   1.410       .  A
C608        F609   1.358       .  S
C613        C614   1.408       .  A
C613        C618   1.404       .  A
C613        H620   1.081       .  S
C614        C615   1.409       .  A
C615        C616   1.399       .  A
C615        F622   1.357       .  S
C616        C617   1.405       .  A
C616        H621   1.081       .  S
C617        C618   1.410       .  A
C618        F619   1.358       .  S
C623        C624   1.410       .  A
C623        C628   1.399       .  A
C623        H630   1.083       .  S
C624        C625   1.407       .  A
C625        C626   1.395       .  A
C625        F632   1.357       .  S
C626        C627   1.404       .  A
C626        H631   1.084       .  S
C627        C628   1.402       .  A
C628        F629   1.358       .  S
C633        C634   1.411       .  A
C633        C638   1.399       .  A
C633        H640   1.082       .  S
C634        C635   1.405       .  A
C635        C636   1.394       .  A
C635        F642   1.358       .  S
C636        C637   1.406       .  A
C636        H641   1.083       .  S
C637        C638   1.401       .  A
C638        F639   1.357       .  S
C643        C644   1.405       .  A
C643        C648   1.395       .  A
C643        H650   1.084       .  S
C644        C645   1.402       .  A
C645        C646   1.399       .  A
C645        F652   1.357       .  S
C646        C647   1.410       .  A
C646        H651   1.083       .  S
C647        C648   1.405       .  A
C648        F649   1.358       .  S
C653        C654   1.402       .  A
C653        C658   1.400       .  A
C653        H660   1.083       .  S
C654        C655   1.406       .  A
C655        C656   1.394       .  A
C655        F662   1.358       .  S
C656        C657   1.405       .  A
C656        H661   1.083       .  S
C657        C658   1.412       .  A
C658        F659   1.357       .  S
C663        C664   1.407       .  A
C663        C668   1.404       .  A
C663        H670   1.083       .  S
C664        C665   1.408       .  A
C665        C666   1.398       .  A
C665        F672   1.357       .  S
C666        C667   1.405       .  A
C666        H671   1.083       .  S
C667        C668   1.410       .  A
C668        F669   1.357       .  S
C673        C674   1.410       .  A
C673        C678   1.400       .  A
C673        H680   1.083       .  S
C674        C675   1.408       .  A
C675        C676   1.395       .  A
C675        F682   1.357       .  S
C676        C677   1.404       .  A
C676        H681   1.084       .  S
C677        C678   1.404       .  A
C678        F679   1.358       .  S
C683        C684   1.408       .  A
C683        C688   1.399       .  A
C683        H690   1.084       .  S
C684        C685   1.406       .  A
C685        C686   1.395       .  A
C685        F692   1.357       .  S
C686        C687   1.404       .  A
C686        H691   1.084       .  S
C687        C688   1.403       .  A
C688        F689   1.358       .  S
C693        C694   1.409       .  A
C693        C698   1.399       .  A
C693        H700   1.083       .  S
C694        C695   1.407       .  A
C695        C696   1.394       .  A
C695        F702   1.357       .  S
C696        C697   1.404       .  A
C696        H701   1.084       .  S
C697        C698   1.403       .  A
C698        F699   1.358       .  S
C703        C704   1.410       .  A
C703        C708   1.399       .  A
C703        H710   1.083       .  S
C704        C705   1.406       .  A
C705        C706   1.395       .  A
C705        F712   1.358       .  S
C706        C707   1.406       .  A
C706        H711   1.084       .  S
C707        C708   1.403       .  A
C708        F709   1.357       .  S
C713        C714   1.411       .  A
C713        C718   1.401       .  A
C713        H720   1.083       .  S
C714        C715   1.407       .  A
C715        C716   1.395       .  A
C715        F722   1.357       .  S
C716        C717   1.406       .  A
C716        H721   1.084       .  S
C717        C718   1.404       .  A
C718        F719   1.357       .  S
C723        C724   1.410       .  A
C723        C728   1.398       .  A
C723        H730   1.083       .  S
C724        C725   1.408       .  A
C725        C726   1.396       .  A
C725        F732   1.357       .  S
C726        C727   1.405       .  A
C726        H731   1.084       .  S
C727        C728   1.403       .  A
C728        F729   1.358       .  S
C733        C734   1.405       .  A
C733        C738   1.398       .  A
C733        H740   1.083       .  S
C734        C735   1.410   1_565  A
C735        C736   1.406       .  A
C735        F742   1.357       .  S
C736        C737   1.408   1_545  A
C736        H741   1.083       .  S
C737        C738   1.409       .  A
C738        F739   1.357       .  S
C743        C744   1.403       .  A
C743        C748   1.395       .  A
C743        H750   1.084       .  S
C744        C745   1.412       .  A
C745        C746   1.400       .  A
C745        F752   1.358       .  S
C746        C747   1.402       .  A
C746        H751   1.084       .  S
C747        C748   1.407       .  A
C748        F749   1.358       .  S
C753        C754   1.400       .  A
C753        C758   1.399       .  A
C753        H760   1.084       .  S
C754        C755   1.408       .  A
C755        C756   1.396       .  A
C755        F762   1.358       .  S
C756        C757   1.401       .  A
C756        H761   1.084       .  S
C757        C758   1.411       .  A
C758        F759   1.358       .  S
C763        C764   1.407       .  A
C763        C768   1.402       .  A
C763        H770   1.084       .  S
C764        C765   1.408   1_565  A
C765        C766   1.399       .  A
C765        F772   1.357       .  S
C766        C767   1.406   1_545  A
C766        H771   1.083       .  S
C767        C768   1.409       .  A
C768        F769   1.357       .  S
C773        C774   1.410       .  A
C773        C778   1.398       .  A
C773        H780   1.083       .  S
C774        C775   1.405       .  A
C775        C776   1.396       .  A
C775        F782   1.358       .  S
C776        C777   1.407       .  A
C776        H781   1.084       .  S
C777        C778   1.403       .  A
C778        F779   1.357       .  S
C783        C784   1.410       .  A
C783        C788   1.398       .  A
C783        H790   1.083       .  S
C784        C785   1.406       .  A
C785        C786   1.395       .  A
C785        F792   1.357       .  S
C786        C787   1.406       .  A
C786        H791   1.084       .  S
C787        C788   1.402       .  A
C788        F789   1.357       .  S
C793        C794   1.405       .  A
C793        C798   1.396       .  A
C793        H800   1.083       .  S
C794        C795   1.412       .  A
C795        C796   1.400       .  A
C795        F802   1.358       .  S
C796        C797   1.401       .  A
C796        H801   1.084       .  S
C797        C798   1.406       .  A
C798        F799   1.358       .  S
C803        C804   1.403   1_455  A
C803        C808   1.395       .  A
C803        H810   1.083       .  S
C804        C805   1.413   1_655  A
C805        C806   1.401       .  A
C805        F812   1.357   1_455  S
C806        C807   1.401       .  A
C806        H811   1.083       .  S
C807        C808   1.409       .  A
C808        F809   1.358       .  S
C813        C814   1.410       .  A
C813        C818   1.399       .  A
C813        H820   1.084       .  S
C814        C815   1.405       .  A
C815        C816   1.394       .  A
C815        F822   1.358       .  S
C816        C817   1.405       .  A
C816        H821   1.084       .  S
C817        C818   1.401       .  A
C818        F819   1.357       .  S
C823        C824   1.410   1_455  A
C823        C828   1.399       .  A
C823        H830   1.083   1_455  S
C824        C825   1.407   1_655  A
C825        C826   1.396       .  A
C825        F832   1.357       .  S
C826        C827   1.405       .  A
C826        H831   1.084       .  S
C827        C828   1.402       .  A
C828        F829   1.358       .  S
C833        C834   1.400       .  A
C833        C838   1.393       .  A
C833        H840   1.083       .  S
C834        C835   1.413       .  A
C835        C836   1.398       .  A
C835        F842   1.357       .  S
C836        C837   1.398       .  A
C836        H841   1.083       .  S
C837        C838   1.409       .  A
C838        F839   1.358       .  S
C843        C844   1.400       .  A
C843        C848   1.394       .  A
C843        H850   1.083       .  S
C844        C845   1.412       .  A
C845        C846   1.397       .  A
C845        F852   1.358       .  S
C846        C847   1.398       .  A
C846        H851   1.083       .  S
C847        C848   1.409       .  A
C848        F849   1.358       .  S
C853        C854   1.409       .  A
C853        C858   1.399       .  A
C853        H860   1.083       .  S
C854        C855   1.404       .  A
C855        C856   1.396       .  A
C855        F862   1.358       .  S
C856        C857   1.406       .  A
C856        H861   1.084       .  S
C857        C858   1.402       .  A
C858        F859   1.357       .  S
C863        C864   1.403       .  A
C863        C868   1.395       .  A
C863        H870   1.084       .  S
C864        C865   1.404       .  A
C865        C866   1.399       .  A
C865        F872   1.358       .  S
C866        C867   1.408       .  A
C866        H871   1.084       .  S
C867        C868   1.407       .  A
C868        F869   1.357       .  S
C873        C874   1.407       .  A
C873        C878   1.404   1_556  A
C873        H880   1.083       .  S
C874        C875   1.408       .  A
C875        C876   1.400   1_556  A
C875        F882   1.357       .  S
C876        C877   1.407       .  A
C876        H881   1.083       .  S
C877        C878   1.410       .  A
C878        F879   1.357       .  S
C883        C884   1.410       .  A
C883        C888   1.397       .  A
C883        H890   1.083       .  S
C884        C885   1.405       .  A
C885        C886   1.396       .  A
C885        F892   1.358       .  S
C886        C887   1.407       .  A
C886        H891   1.084       .  S
C887        C888   1.402       .  A
C888        F889   1.357       .  S
C893        C894   1.401   1_455  A
C893        C898   1.395       .  A
C893        H900   1.084       .  S
C894        C895   1.413   1_655  A
C895        C896   1.400       .  A
C895        F902   1.358   1_455  S
C896        C897   1.400       .  A
C896        H901   1.084       .  S
C897        C898   1.409       .  A
C898        F899   1.358       .  S
C903        C904   1.408       .  A
C903        C908   1.405   1_554  A
C903        H910   1.083       .  S
C904        C905   1.409       .  A
C905        C906   1.398   1_554  A
C905        F912   1.357       .  S
C906        C907   1.405       .  A
C906        H911   1.083       .  S
C907        C908   1.410       .  A
C908        F909   1.357       .  S
C913        C914   1.403       .  A
C913        C918   1.395       .  A
C913        H920   1.084       .  S
C914        C915   1.412       .  A
C915        C916   1.400       .  A
C915        F922   1.358       .  S
C916        C917   1.401       .  A
C916        H921   1.084       .  S
C917        C918   1.407       .  A
C918        F919   1.358       .  S
C923        C924   1.401       .  A
C923        C928   1.399       .  A
C923        H930   1.084       .  S
C924        C925   1.407       .  A
C925        C926   1.396       .  A
C925        F932   1.358       .  S
C926        C927   1.404       .  A
C926        H931   1.083       .  S
C927        C928   1.413       .  A
C928        F929   1.358   1_455  S
C933        C934   1.408   1_556  A
C933        C938   1.405   1_565  A
C933        H940   1.083       .  S
C934        C935   1.409       .  A
C935        C936   1.397   1_565  A
C935        F942   1.357       .  S
C936        C937   1.405       .  A
C936        H941   1.083       .  S
C937        C938   1.410   1_554  A
C938        F939   1.357       .  S
C943        C944   1.410       .  A
C943        C948   1.399       .  A
C943        H950   1.083       .  S
C944        C945   1.407       .  A
C945        C946   1.396       .  A
C945        F952   1.357       .  S
C946        C947   1.405       .  A
C946        H951   1.084       .  S
C947        C948   1.403       .  A
C948        F949   1.358       .  S
C953        C954   1.410       .  A
C953        C958   1.400       .  A
C953        H960   1.083       .  S
C954        C955   1.407       .  A
C955        C956   1.395       .  A
C955        F962   1.357       .  S
C956        C957   1.405       .  A
C956        H961   1.084       .  S
C957        C958   1.404       .  A
C958        F959   1.357       .  S
C963        C964   1.407   1_554  A
C963        C968   1.404   1_545  A
C963        H970   1.084       .  S
C964        C965   1.408       .  A
C965        C966   1.398   1_545  A
C965        F972   1.357       .  S
C966        C967   1.405       .  A
C966        H971   1.083       .  S
C967        C968   1.409   1_556  A
C968        F969   1.357       .  S
C973        C974   1.410       .  A
C973        C978   1.399       .  A
C973        H980   1.083       .  S
C974        C975   1.406       .  A
C975        C976   1.395       .  A
C975        F982   1.358       .  S
C976        C977   1.406       .  A
C976        H981   1.084       .  S
C977        C978   1.403       .  A
C978        F979   1.357       .  S
C983        C984   1.410       .  A
C983        C988   1.400       .  A
C983        H990   1.083       .  S
C984        C985   1.408       .  A
C985        C986   1.395       .  A
C985        F992   1.357       .  S
C986        C987   1.404       .  A
C986        H991   1.084       .  S
C987        C988   1.403       .  A
C988        F989   1.358       .  S
