geometry optimzed in LAMMPS
_audit_creation_date              2020-11-30 
_audit_creation_method            'lammps2cif' 
_symmetry_space_group_name_H-M    'P1' 
_symmetry_Int_Tables_number       1 
_symmetry_cell_setting            triclinic 
loop_ 
_symmetry_equiv_pos_as_xyz 
  x,y,z 
_cell_length_a                    49.85090484958154 
_cell_length_b                    49.96105715715535 
_cell_length_c                    50.33150756461606 
_cell_angle_alpha                 89.77113760876843 
_cell_angle_beta                  89.97501654591798 
_cell_angle_gamma                 89.45899300080505 
loop_ 
_atom_site_label 
_atom_site_type_symbol 
_atom_site_fract_x 
_atom_site_fract_y 
_atom_site_fract_z 
_atom_site_charge 
C1          C  0.17053058  0.17136197  0.48543337     0.00400
C2          C  0.16561579  0.16464988  0.51167242     0.00400
C3          C  0.15789299  0.52051992  0.15370832     0.00400
C4          C  0.15656935  0.49259357  0.15163051     0.00400
C5          C  0.49880006  0.16636438  0.15375485     0.00400
C6          C  0.52578101  0.17065170  0.15584260     0.00400
C7          C  0.15636361  0.85023604  0.50063798     0.00400
C8          C  0.17714948  0.86857689  0.50361989     0.00400
C9          C  0.84767431  0.17103669  0.48304313     0.00400
C10         C  0.84304061  0.17636757  0.50937419     0.00400
C11         C  0.85255557  0.85163485  0.49236414     0.00400
C12         C  0.85415294  0.85473182  0.51939537     0.00400
C13         C  0.52483650  0.17483022  0.84347863     0.00400
C14         C  0.49711582  0.17343305  0.84342369     0.00400
C15         C  0.16529270  0.52126102  0.84040738     0.00400
C16         C  0.16596393  0.49368559  0.84346566     0.00400
C17         C  0.49565479  0.84634066  0.16450228     0.00400
C18         C  0.52196923  0.84958853  0.15709050     0.00400
C19         C  0.84201238  0.49911049  0.17219525     0.00400
C20         C  0.84091549  0.52657344  0.17133671     0.00400
C21         C  0.83708285  0.49789850  0.82512493     0.00400
C22         C  0.83705681  0.52537777  0.82484138     0.00400
C23         C  0.49826809  0.86001309  0.85352386     0.00400
C24         C  0.52555610  0.86122489  0.84785665     0.00400
C25         C  0.60401580  0.73226295  0.91043044     0.02970
C26         C  0.59361984  0.75871861  0.90787445    -0.13180
C27         C  0.59222727  0.77135719  0.88235953     0.00470
C28         C  0.60250246  0.75697807  0.86034335    -0.11710
C29         C  0.61598990  0.73261740  0.86376864     0.02960
C30         C  0.61429848  0.71946634  0.88800693    -0.11130
H31         H  0.58700720  0.76915466  0.92551706     0.08560
H32         H  0.60159221  0.76522607  0.84052797     0.06080
H33         H  0.62421294  0.70013168  0.89013413     0.05930
C34         C  0.77749630  0.58527259  0.90436227     0.02970
C35         C  0.79405639  0.60693968  0.90998992    -0.13180
C36         C  0.78505843  0.62824886  0.92578070     0.00470
C37         C  0.76137090  0.62480906  0.94027655    -0.11710
C38         C  0.74267838  0.60548923  0.93246218     0.02960
C39         C  0.75089992  0.58525142  0.91441480    -0.11130
H40         H  0.81254630  0.60855444  0.89885182     0.08560
H41         H  0.75481926  0.64065952  0.95350770     0.06080
H42         H  0.73671707  0.57051766  0.90758746     0.05930
C43         C  0.92938462  0.60869382  0.71907928     0.02970
C44         C  0.91996831  0.58625007  0.73361288    -0.13180
C45         C  0.90058107  0.59024187  0.75401973     0.00470
C46         C  0.89240470  0.61637335  0.76042890    -0.11710
C47         C  0.90318339  0.63837879  0.74721631     0.02960
C48         C  0.91909651  0.63407055  0.72503619    -0.11130
H49         H  0.92811075  0.56646481  0.72984401     0.08560
H50         H  0.87848592  0.61958363  0.77668934     0.06080
H51         H  0.92697321  0.65116968  0.71437139     0.05930
C52         C  0.93874492  0.75550338  0.61821227     0.02970
C53         C  0.93216273  0.76781368  0.59354599    -0.13180
C54         C  0.91663767  0.79174400  0.59319173     0.00470
C55         C  0.90757079  0.80241682  0.61722667    -0.11710
C56         C  0.91215837  0.78923478  0.64133278     0.02960
C57         C  0.92805232  0.76609214  0.64176048    -0.11130
H58         H  0.93935487  0.75924064  0.57511686     0.08560
H59         H  0.89581483  0.82079387  0.61701467     0.06080
H60         H  0.93187993  0.75597396  0.66050015     0.05930
C61         C  0.78415661  0.92846826  0.57582023     0.02970
C62         C  0.79864536  0.93038666  0.59958094    -0.13180
C63         C  0.78507930  0.93609088  0.62303315     0.00470
C64         C  0.76176161  0.95143331  0.62146507    -0.11710
C65         C  0.74543941  0.94945826  0.59881669     0.02960
C66         C  0.75674159  0.93745797  0.57550719    -0.11130
H67         H  0.81788280  0.92011036  0.60110032     0.08560
H68         H  0.75292517  0.95822172  0.63998754     0.06080
H69         H  0.74427907  0.93383465  0.55831971     0.05930
C70         C  0.59651200  0.93098786  0.71979803     0.02970
C71         C  0.57843865  0.93242794  0.74161095    -0.13180
C72         C  0.57365493  0.90909615  0.75706313     0.00470
C73         C  0.58733752  0.88537674  0.75099910    -0.11710
C74         C  0.60555406  0.88429871  0.73025247     0.02960
C75         C  0.60930646  0.90663232  0.71407756    -0.11130
H76         H  0.56888784  0.95124847  0.74677412     0.08560
H77         H  0.58512312  0.86798329  0.76380230     0.06080
H78         H  0.62431006  0.90573904  0.69846266     0.05930
O79         O  0.75317521  0.75271482  0.79875361    -0.88510
C80         C  0.81772345  0.71899258  0.76371171     0.87520
Mg81       Mg  0.71909499  0.76567227  0.77586241     1.58150
O82         O  0.82488012  0.78425133  0.78864268    -0.88240
O83         O  0.78097827  0.76691922  0.82919257    -0.75570
C84         C  0.77299612  0.84261522  0.68778548     0.92570
O85         O  0.75444821  0.71646479  0.74610807    -0.75380
O86         O  0.75092707  0.83082392  0.69166874    -0.82890
Mg87       Mg  0.76602452  0.71258191  0.79069337     1.57960
C88         C  0.86203038  0.83226164  0.73549071     0.92500
O89         O  0.77756636  0.70520341  0.83462459    -0.81150
H90         H  0.82716351  0.80879595  0.81989574    -0.06490
C91         C  0.81142340  0.77899369  0.71090371     0.87440
O92         O  0.73269390  0.80937675  0.78017873    -0.75660
O93         O  0.80453055  0.72854676  0.78230906    -0.88420
O94         O  0.86264355  0.81914568  0.75698974    -0.81230
C95         C  0.88222737  0.74052061  0.78779614     0.92610
C96         C  0.79793406  0.70619990  0.84993003     0.92460
Mg97       Mg  0.80225884  0.83013264  0.74209738     1.57950
O98         O  0.79415484  0.83493038  0.69912738    -0.81160
O99         O  0.81337305  0.82653246  0.78611865    -0.75400
O100        O  0.86166671  0.73409444  0.80113912    -0.81240
O101        O  0.72430538  0.69807917  0.80148058    -0.82950
O102        O  0.70625847  0.80734340  0.72641624    -0.81270
C103        C  0.82226696  0.80649560  0.79911375     0.86900
O104        O  0.76391784  0.81289341  0.74988337    -0.88410
O105        O  0.81539445  0.78994887  0.73251490    -0.88510
O106        O  0.78799649  0.77729690  0.70123786    -0.75570
Mg107      Mg  0.82197696  0.75135134  0.81433992     1.57970
O108        O  0.88458047  0.76366393  0.77795035    -0.82950
H109        H  0.74058278  0.77260147  0.83094972    -0.06670
O110        O  0.74271678  0.75849978  0.74078368    -0.88210
H111        H  0.74200163  0.73226005  0.71082423    -0.06490
H112        H  0.75269894  0.84383521  0.77260215    -0.06670
C113        C  0.74612775  0.73577970  0.73159916     0.86880
C114        C  0.75735421  0.76420381  0.82008431     0.87460
C115        C  0.74993505  0.82303379  0.76754741     0.87510
H116        H  0.82818935  0.77038135  0.70018967    -0.06650
O117        O  0.83447754  0.73300611  0.75073836    -0.75680
Mg118      Mg  0.74714453  0.79276270  0.71605108     1.58000
H119        H  0.81477983  0.69833238  0.75820813    -0.06670
C120        C  0.70286238  0.70869018  0.79247819     0.92500
O121        O  0.68276982  0.78101931  0.75313974    -0.82910
C122        C  0.68458534  0.80129610  0.73799578     0.92560
O123        O  0.81922703  0.71800995  0.84323679    -0.82890
Mg124      Mg  0.84885411  0.77695480  0.75439312     1.58180
O125        O  0.70377335  0.72326128  0.77190141    -0.81230
O126        O  0.84288979  0.84868485  0.73215145    -0.82920
C127        C  0.65612918  0.66069940  0.98198725     0.00400
C128        C  0.65896843  0.65969835  0.00948727     0.00400
C129        C  0.65514848  0.99893191  0.64810104     0.00400
C130        C  0.65825409  0.02625148  0.65098125     0.00400
C131        C  0.99733041  0.65794597  0.64451648     0.00400
C132        C  0.02456132  0.65344485  0.64088560     0.00400
C133        C  0.76414379  0.43849631  0.89217101     0.02970
C134        C  0.76683145  0.41215562  0.88308060    -0.13180
C135        C  0.75051432  0.39206429  0.89307177     0.00470
C136        C  0.73090577  0.39802082  0.91154970    -0.11710
C137        C  0.72876287  0.42344110  0.92258164     0.02960
C138        C  0.74520891  0.44432406  0.91263159    -0.11130
H139        H  0.78220037  0.40709430  0.86862992     0.08560
H140        H  0.71896211  0.38183939  0.91959806     0.06080
H141        H  0.74392656  0.46419538  0.92105214     0.05930
C142        C  0.58778496  0.25731827  0.89186868     0.02970
C143        C  0.60856445  0.25320549  0.87381026    -0.13180
C144        C  0.63173475  0.26823425  0.87473405     0.00470
C145        C  0.63288890  0.29034118  0.89145816    -0.11710
C146        C  0.61399672  0.29416526  0.91203438     0.02960
C147        C  0.59086008  0.27717135  0.91210409    -0.11130
H148        H  0.60768814  0.23623615  0.86044305     0.08560
H149        H  0.65077522  0.30246293  0.89047943     0.06080
H150        H  0.57607967  0.27868511  0.92778277     0.05930
C151        C  0.91641828  0.42955716  0.77646633     0.02970
C152        C  0.91880961  0.41153676  0.79762010    -0.13180
C153        C  0.92587662  0.38485325  0.79324205     0.00470
C154        C  0.93430162  0.37724677  0.76778063    -0.11710
C155        C  0.93671625  0.39585881  0.74686420     0.02960
C156        C  0.92658933  0.42226559  0.75110950    -0.11130
H157        H  0.91174833  0.41757476  0.81709599     0.08560
H158        H  0.93814909  0.35631170  0.76371785     0.06080
H159        H  0.92636056  0.43681875  0.73512903     0.05930
C160        C  0.88876637  0.26624128  0.56640191     0.02970
C161        C  0.86938382  0.27285979  0.58563100    -0.13180
C162        C  0.87562606  0.29011166  0.60640878     0.00470
C163        C  0.89844929  0.30568265  0.60462380    -0.11710
C164        C  0.91901536  0.29874759  0.58711930     0.02960
C165        C  0.91433914  0.27876280  0.56766242    -0.11130
H166        H  0.85095678  0.26154993  0.58669185     0.08560
H167        H  0.90293205  0.31923155  0.62083542     0.06080
H168        H  0.93041841  0.27237271  0.55461870     0.05930
C169        C  0.76762790  0.11886078  0.57105275     0.02970
C170        C  0.74716587  0.09927310  0.57349848    -0.13180
C171        C  0.73662411  0.09330141  0.59923182     0.00470
C172        C  0.74695132  0.10652942  0.62139470    -0.11710
C173        C  0.76715911  0.12512429  0.61838301     0.02960
C174        C  0.77698712  0.13152340  0.59366462    -0.11130
H175        H  0.73980207  0.08899821  0.55611494     0.08560
H176        H  0.73961467  0.10192829  0.64118045     0.06080
H177        H  0.79285047  0.14624016  0.59210581     0.05930
C178        C  0.58148362  0.13137477  0.75062082     0.02970
C179        C  0.58533972  0.10445844  0.74114618    -0.13180
C180        C  0.59977376  0.09990928  0.71684961     0.00470
C181        C  0.61101426  0.12189345  0.70372956    -0.11710
C182        C  0.61229086  0.14618710  0.71664199     0.02960
C183        C  0.59216747  0.15207138  0.73485520    -0.11130
H184        H  0.57897069  0.08757657  0.75301875     0.08560
H185        H  0.62497369  0.11839937  0.68750299     0.06080
H186        H  0.58932293  0.17282453  0.74009332     0.05930
O187        O  0.84956276  0.23558738  0.77917377    -0.88510
C188        C  0.79279900  0.28811963  0.80506902     0.87520
Mg189      Mg  0.84253668  0.21185650  0.74582803     1.58150
O190        O  0.79683736  0.22579196  0.83775521    -0.88240
O191        O  0.85849551  0.22826035  0.82098176    -0.75570
C192        C  0.72041611  0.16920072  0.74814775     0.92570
O193        O  0.80566078  0.27011287  0.74440911    -0.75380
O194        O  0.74069804  0.16844767  0.73307027    -0.82890
Mg195      Mg  0.83935244  0.27773093  0.77396316     1.57960
C196        C  0.72037874  0.19934549  0.85066530     0.92500
O197        O  0.87261428  0.29056744  0.80194944    -0.81150
H198        H  0.81465088  0.19970373  0.86258428    -0.06490
C199        C  0.73831133  0.23267664  0.78154256     0.87440
O200        O  0.82952781  0.17603918  0.77249173    -0.75660
O201        O  0.81246767  0.27284260  0.80577888    -0.88420
O202        O  0.74347893  0.20668474  0.85728929    -0.81230
C203        C  0.77765555  0.28361365  0.87550801     0.92610
C204        C  0.87447288  0.29647210  0.82649699     0.92460
Mg205      Mg  0.75416216  0.17962548  0.80507523     1.57950
O206        O  0.72250655  0.17451923  0.77275623    -0.81160
O207        O  0.78646539  0.18322737  0.83850194    -0.75400
O208        O  0.80038374  0.28265486  0.86424128    -0.81240
O209        O  0.86576966  0.28425755  0.73725004    -0.82950
O210        O  0.80274673  0.16704438  0.72526663    -0.81270
C211        C  0.80015262  0.20293902  0.84690532     0.86900
O212        O  0.78572253  0.18038232  0.77759732    -0.88410
O213        O  0.75223206  0.22233762  0.79920244    -0.88510
O214        O  0.74231949  0.22695052  0.75729863    -0.75570
Mg215      Mg  0.82767331  0.25498132  0.84164184     1.57970
O216        O  0.76112931  0.26460267  0.87399740    -0.82950
H217        H  0.88069733  0.21290151  0.79078771    -0.06670
O218        O  0.80267941  0.22667676  0.74554592    -0.88210
H219        H  0.78065209  0.24918851  0.72068875    -0.06490
H220        H  0.80673156  0.15012356  0.79387466    -0.06670
C221        C  0.79586422  0.24848818  0.73598931     0.86880
C222        C  0.86391020  0.22544581  0.79655528     0.87460
C223        C  0.80709736  0.16808138  0.78183241     0.87510
H224        H  0.72267009  0.24683588  0.78679286    -0.06650
O225        O  0.77008759  0.28102090  0.81391021    -0.75680
Mg226      Mg  0.77359371  0.19726475  0.74045451     1.58000
H227        H  0.79484126  0.30771212  0.79613649    -0.06670
C228        C  0.86249576  0.26912204  0.71725779     0.92500
O229        O  0.83570120  0.18954591  0.70761519    -0.82910
C230        C  0.81718158  0.17269224  0.70567415     0.92560
O231        O  0.85947456  0.28648182  0.84432620    -0.82890
Mg232      Mg  0.75712411  0.24285341  0.83569822     1.58180
O233        O  0.85424012  0.24543100  0.72005873    -0.81230
O234        O  0.71835440  0.18129718  0.83331763    -0.82920
C235        C  0.42367303  0.73112289  0.92390024     0.02970
C236        C  0.44408067  0.75098058  0.92197771    -0.13180
C237        C  0.44499140  0.76803890  0.89916340     0.00470
C238        C  0.42488247  0.76598076  0.88005135    -0.11710
C239        C  0.40380464  0.74830871  0.88339024     0.02960
C240        C  0.40420521  0.73001203  0.90413004    -0.11130
H241        H  0.45831782  0.75350248  0.93797940     0.08560
H242        H  0.42438589  0.77991951  0.86344709     0.06080
H243        H  0.38697164  0.71721122  0.90705903     0.05930
C244        C  0.26131631  0.62739130  0.91684368     0.02970
C245        C  0.25016705  0.60097720  0.91592598    -0.13180
C246        C  0.22438287  0.59682155  0.90433069     0.00470
C247        C  0.20905232  0.61904504  0.89687079    -0.11710
C248        C  0.22151247  0.64335812  0.89214604     0.02960
C249        C  0.24760802  0.64717178  0.90179309    -0.11130
H250        H  0.26080486  0.58381333  0.92376726     0.08560
H251        H  0.18871281  0.61609461  0.88994357     0.06080
H252        H  0.25760661  0.66556121  0.89657764     0.05930
C253        C  0.44838173  0.91706027  0.77092994     0.02970
C254        C  0.45010808  0.89525269  0.75356890    -0.13180
C255        C  0.43572827  0.89599475  0.73009235     0.00470
C256        C  0.43174825  0.92044137  0.71763987    -0.11710
C257        C  0.43188208  0.94403638  0.73266761     0.02960
C258        C  0.43909785  0.94218305  0.76030315    -0.11130
H259        H  0.45585174  0.87572812  0.76126555     0.08560
H260        H  0.42179875  0.92038153  0.69845604     0.06080
H261        H  0.43634526  0.95924289  0.77322965     0.05930
C262        C  0.29640249  0.92054834  0.60246414     0.02970
C263        C  0.27403874  0.91844066  0.58471409    -0.13180
C264        C  0.26622015  0.89280521  0.57477158     0.00470
C265        C  0.28140791  0.87059926  0.58350759    -0.11710
C266        C  0.30400892  0.87238928  0.60005360     0.02960
C267        C  0.31073590  0.89746115  0.60975631    -0.11130
H268        H  0.26286158  0.93628467  0.57924186     0.08560
H269        H  0.27499941  0.85121628  0.57763227     0.06080
H270        H  0.32652311  0.89920402  0.62437091     0.05930
C271        C  0.08612376  0.58879600  0.71277520     0.02970
C272        C  0.08692968  0.57413125  0.73723752    -0.13180
C273        C  0.11231155  0.56758107  0.74874977     0.00470
C274        C  0.13548634  0.57712740  0.73652901    -0.11710
C275        C  0.13440038  0.59148206  0.71304313     0.02960
C276        C  0.11014304  0.59622498  0.70059957    -0.11130
H277        H  0.06853806  0.56848890  0.74712272     0.08560
H278        H  0.15478541  0.57464796  0.74630851     0.06080
H279        H  0.10977446  0.60892045  0.68302638     0.05930
C280        C  0.10474894  0.72440955  0.59228187     0.02970
C281        C  0.10110552  0.74655061  0.57419490    -0.13180
C282        C  0.12268352  0.76454079  0.56926642     0.00470
C283        C  0.14757212  0.75894108  0.58033010    -0.11710
C284        C  0.15168394  0.73727644  0.59701281     0.02960
C285        C  0.12991827  0.72209909  0.60505834    -0.11130
H286        H  0.08234532  0.74961741  0.56382809     0.08560
H287        H  0.16456665  0.77106707  0.57449201     0.06080
H288        H  0.13325237  0.70825336  0.62125411     0.05930
O289        O  0.32508376  0.75971712  0.74782417    -0.88510
C290        C  0.24549968  0.77241121  0.76369353     0.87520
Mg291      Mg  0.34315623  0.77003585  0.71035687     1.58150
O292        O  0.27015607  0.70626608  0.75879804    -0.88240
O293        O  0.32288806  0.72976926  0.77943986    -0.75570
C294        C  0.25810039  0.71532265  0.63125518     0.92570
O295        O  0.28610154  0.80609785  0.72379797    -0.75380
O296        O  0.27954811  0.72840171  0.62824579    -0.82890
Mg297      Mg  0.30140043  0.79190791  0.76477558     1.57960
C298        C  0.22588821  0.65656966  0.71355127     0.92500
O299        O  0.31671232  0.78075181  0.80529062    -0.81150
H300        H  0.29380511  0.67638997  0.77190396    -0.06490
C301        C  0.23636425  0.73838810  0.69440069     0.87440
O302        O  0.34534313  0.72567540  0.69843001    -0.75660
O303        O  0.26876570  0.76480054  0.76794381    -0.88420
O304        O  0.23106995  0.66725635  0.73566884    -0.81230
C305        C  0.21778099  0.71130483  0.80595481     0.92610
C306        C  0.30903879  0.76843614  0.82593729     0.92460
Mg307      Mg  0.27280063  0.69006488  0.69065545     1.57950
O308        O  0.25417451  0.70133101  0.65180696    -0.81160
O309        O  0.28892024  0.67710694  0.73179443    -0.75400
O310        O  0.23515604  0.72954240  0.80840108    -0.81240
O311        O  0.33736076  0.81881121  0.76239024    -0.82950
O312        O  0.33611136  0.75540419  0.64945627    -0.81270
C313        C  0.28446738  0.68617946  0.75504193     0.86900
O314        O  0.30380923  0.71822881  0.68693829    -0.88410
O315        O  0.24818828  0.72106606  0.70759544    -0.88510
O316        O  0.24883382  0.75286821  0.67786886    -0.75570
Mg317      Mg  0.27810088  0.73046546  0.79189933     1.57970
O318        O  0.21325393  0.70080612  0.78354981    -0.82950
H319        H  0.35739108  0.73895454  0.75997870    -0.06670
O320        O  0.30280915  0.77582523  0.69698737    -0.88210
H321        H  0.28093184  0.80693553  0.68372584    -0.06490
H322        H  0.33238295  0.68989148  0.68455875    -0.06670
C323        C  0.28972054  0.79668042  0.70061157     0.86880
C324        C  0.33612517  0.74278030  0.76216527     0.87460
C325        C  0.32725705  0.71033111  0.68956379     0.87510
H326        H  0.21508748  0.74157336  0.69732740    -0.06650
O327        O  0.22804861  0.75642978  0.75469133    -0.75680
Mg328      Mg  0.29271691  0.75275589  0.66395758     1.58000
H329        H  0.23995757  0.79301241  0.76751178    -0.06670
C330        C  0.34977633  0.82312251  0.74088977     0.92500
O331        O  0.36095271  0.78384425  0.67067321    -0.82910
C332        C  0.34812304  0.77778181  0.64990564     0.92560
O333        O  0.28738624  0.75560681  0.82674084    -0.82890
Mg334      Mg  0.23071719  0.71145378  0.74430449     1.58180
O335        O  0.34221965  0.81314524  0.71934230    -0.81230
O336        O  0.23947541  0.66148785  0.69302532    -0.82920
C337        C  0.35727368  0.99762837  0.66327504     0.00400
C338        C  0.35417778  0.02490682  0.66052352     0.00400
C339        C  0.42947097  0.23153074  0.91583158     0.02970
C340        C  0.40613201  0.21809819  0.90873384    -0.13180
C341        C  0.38123699  0.22766209  0.91660300     0.00470
C342        C  0.37928195  0.24778779  0.93546921    -0.11710
C343        C  0.40192682  0.26226003  0.94306625     0.02960
C344        C  0.42757375  0.25403560  0.93314188    -0.11130
H345        H  0.40705116  0.20276373  0.89350993     0.08560
H346        H  0.35944066  0.25528709  0.94060291     0.06080
H347        H  0.44526093  0.26556333  0.93765821     0.05930
C348        C  0.29187619  0.42141956  0.92319123     0.02970
C349        C  0.26667369  0.43411993  0.91813494    -0.13180
C350        C  0.25841264  0.43848759  0.89135015     0.00470
C351        C  0.27350825  0.42629883  0.87099601    -0.11710
C352        C  0.29848608  0.41432388  0.87632905     0.02960
C353        C  0.30867118  0.41539538  0.90191968    -0.11130
H354        H  0.25388817  0.44019461  0.93446011     0.08560
H355        H  0.26535476  0.42573647  0.85106366     0.06080
H356        H  0.32822643  0.40645711  0.90583202     0.05930
C357        C  0.26236932  0.07290926  0.60624281     0.02970
C358        C  0.25265868  0.07852907  0.58002792    -0.13180
C359        C  0.22918172  0.09496551  0.57667076     0.00470
C360        C  0.21644486  0.10522288  0.59913517    -0.11710
C361        C  0.22700116  0.10123783  0.62423918     0.02960
C362        C  0.24928786  0.08478023  0.62783573    -0.11130
H363        H  0.26313556  0.07066571  0.56287313     0.08560
H364        H  0.19981146  0.11924699  0.59676820     0.06080
H365        H  0.25762650  0.08267572  0.64766456     0.05930
C366        C  0.41525567  0.09940248  0.72132026     0.02970
C367        C  0.39735202  0.12002928  0.71505927    -0.13180
C368        C  0.39306526  0.14066378  0.73290328     0.00470
C369        C  0.41252244  0.14600945  0.75212188    -0.11710
C370        C  0.43418044  0.12829917  0.75613938     0.02960
C371        C  0.43446889  0.10357995  0.74188473    -0.11130
H372        H  0.38192780  0.11608086  0.70039074     0.08560
H373        H  0.40937986  0.16255141  0.76569123     0.06080
H374        H  0.44862196  0.08788213  0.74715442     0.05930
C375        C  0.11020185  0.25334304  0.55834030     0.02970
C376        C  0.13301083  0.26939531  0.56110045    -0.13180
C377        C  0.13182857  0.29312956  0.57538091     0.00470
C378        C  0.10717803  0.30531662  0.57991325    -0.11710
C379        C  0.08334579  0.29110828  0.57650512     0.02960
C380        C  0.08494008  0.26423997  0.56675690    -0.11130
H381        H  0.15271633  0.26083077  0.55730664     0.08560
H382        H  0.10681354  0.32371242  0.59133999     0.06080
H383        H  0.06725898  0.25183615  0.56692362     0.05930
C384        C  0.08075150  0.39917343  0.74021852     0.02970
C385        C  0.08651912  0.42501799  0.75160521    -0.13180
C386        C  0.10168853  0.42657330  0.77588823     0.00470
C387        C  0.11171035  0.40287407  0.78689884    -0.11710
C388        C  0.11349934  0.38045433  0.77098199     0.02960
C389        C  0.09346537  0.37676279  0.75219357    -0.11130
H390        H  0.08053034  0.44323289  0.74144105     0.08560
H391        H  0.12518213  0.40417451  0.80379233     0.06080
H392        H  0.09207585  0.35707172  0.74345447     0.05930
O393        O  0.24791193  0.23923103  0.70746512    -0.88510
C394        C  0.20070505  0.29050194  0.74439078     0.87520
Mg395      Mg  0.25448155  0.20025848  0.72309649     1.58150
O396        O  0.26985194  0.30366009  0.74083344    -0.88240
O397        O  0.26703326  0.27321146  0.68754798    -0.75570
C398        C  0.29782270  0.22386149  0.83930475     0.92570
O399        O  0.19735724  0.22763317  0.74546481    -0.75380
O400        O  0.29016167  0.20298888  0.82748718    -0.82890
Mg401      Mg  0.20662692  0.24907275  0.70536572     1.57960
C402        C  0.30616066  0.32732128  0.80889833     0.92500
O403        O  0.21534801  0.26943586  0.66606969    -0.81150
H404        H  0.30360010  0.31100270  0.72057332    -0.06490
C405        C  0.24192247  0.26835256  0.80843263     0.87440
O406        O  0.29722230  0.21305449  0.73400416    -0.75660
O407        O  0.21636696  0.28336051  0.72670071    -0.88420
O408        O  0.29138466  0.33277368  0.78915847    -0.81230
C409        C  0.22260126  0.35722163  0.74630411     0.92610
C410        C  0.20895853  0.29303868  0.65906256     0.92460
Mg411      Mg  0.29924075  0.26683827  0.79339984     1.57950
O412        O  0.28911878  0.24660136  0.83218632    -0.81160
O413        O  0.30917878  0.28890508  0.75418178    -0.75400
O414        O  0.22174576  0.34249993  0.72585291    -0.81240
O415        O  0.19785255  0.21213647  0.68121902    -0.82950
O416        O  0.28433981  0.17312317  0.77476568    -0.81270
C417        C  0.29445511  0.30176381  0.73775054     0.86900
O418        O  0.28931105  0.23263398  0.77194812    -0.88410
O419        O  0.25833685  0.27726574  0.79221257    -0.88510
O420        O  0.23935967  0.24327172  0.81223273    -0.75570
Mg421      Mg  0.24482987  0.30869092  0.70714936     1.57970
O422        O  0.24242510  0.35657411  0.76181614    -0.82950
H423        H  0.27695828  0.23438226  0.68027507    -0.06670
O424        O  0.23658065  0.21285919  0.75943301    -0.88210
H425        H  0.20272973  0.20699376  0.78003598    -0.06490
H426        H  0.32646862  0.22874814  0.75715574    -0.06670
C427        C  0.21199858  0.21540457  0.76250807     0.86880
C428        C  0.26440951  0.24814481  0.69131415     0.87460
C429        C  0.30530641  0.22489863  0.75474112     0.87510
H430        H  0.22952521  0.28216490  0.81960152    -0.06650
O431        O  0.20910231  0.30193300  0.76519996    -0.75680
Mg432      Mg  0.26160016  0.20751100  0.79280342     1.58000
H433        H  0.17954617  0.28643161  0.74235378    -0.06670
C434        C  0.20386774  0.18932497  0.69048043     0.92500
O435        O  0.26381721  0.15913140  0.73858427    -0.82910
C436        C  0.28329001  0.15795565  0.75471183     0.92560
O437        O  0.21714843  0.31320971  0.67178711    -0.82890
Mg438      Mg  0.25139026  0.31584437  0.77708775     1.58180
O439        O  0.21252556  0.18691185  0.71380670    -0.81230
O440        O  0.30985130  0.30337052  0.81646676    -0.82920
C441        C  0.99318562  0.35212843  0.65332113     0.00400
C442        C  0.02074674  0.35361808  0.65054684     0.00400
C443        C  0.35821259  0.36135863  0.02078304     0.00400
C444        C  0.35385238  0.35570795  0.99426110     0.00400
C445        C  0.36334375  0.02778685  0.34755651     0.00400
C446        C  0.36064332  0.00032695  0.35074995     0.00400
C447        C  0.29445018  0.43335702  0.08346774     0.02970
C448        C  0.26697709  0.44121475  0.08495229    -0.13180
C449        C  0.25419397  0.44412542  0.11014588     0.00470
C450        C  0.26826405  0.43488944  0.13280100    -0.11710
C451        C  0.29448850  0.42495134  0.13064727     0.02960
C452        C  0.30846281  0.42860889  0.10706742    -0.11130
H453        H  0.25555986  0.44408998  0.06685184     0.08560
H454        H  0.25813121  0.43329877  0.15177779     0.06080
H455        H  0.32886514  0.42087480  0.10612511     0.05930
C456        C  0.43778933  0.23729550  0.08473285     0.02970
C457        C  0.43998370  0.26367644  0.07429871    -0.13180
C458        C  0.41809980  0.27505135  0.06000590     0.00470
C459        C  0.39552143  0.25925382  0.05504367    -0.11710
C460        C  0.39123048  0.23598893  0.06989008     0.02960
C461        C  0.41320594  0.22423469  0.08272669    -0.11130
H462        H  0.45766104  0.27544094  0.07822273     0.08560
H463        H  0.37874077  0.26810796  0.04443571     0.06080
H464        H  0.41057433  0.20619077  0.09436779     0.05930
C465        C  0.41757447  0.07041863  0.25816118     0.02970
C466        C  0.44084472  0.08269896  0.24740949    -0.13180
C467        C  0.43820413  0.09890302  0.22413486     0.00470
C468        C  0.41297623  0.10231316  0.21238583    -0.11710
C469        C  0.39032558  0.09232570  0.22457446     0.02960
C470        C  0.39275473  0.07569128  0.24628320    -0.11130
H471        H  0.46010337  0.08028111  0.25708610     0.08560
H472        H  0.41042226  0.11609540  0.19582348     0.06080
H473        H  0.37442681  0.06935022  0.25606815     0.05930
C474        C  0.27180730  0.09076142  0.38515662     0.02970
C475        C  0.26293994  0.09817354  0.41118064    -0.13180
C476        C  0.23585390  0.10666104  0.41535532     0.00470
C477        C  0.21830134  0.10742657  0.39379563    -0.11710
C478        C  0.22787366  0.10485859  0.36806715     0.02960
C479        C  0.25357103  0.09425137  0.36394819    -0.11130
H480        H  0.27681323  0.09769656  0.42771290     0.08560
H481        H  0.19767979  0.11382937  0.39674481     0.06080
H482        H  0.25957929  0.08981249  0.34378928     0.05930
C483        C  0.12654072  0.26981614  0.44020303     0.02970
C484        C  0.14900792  0.27959014  0.42684802    -0.13180
C485        C  0.14605599  0.29886475  0.40713504     0.00470
C486        C  0.12283225  0.31438325  0.40637188    -0.11710
C487        C  0.09920451  0.30490339  0.41794935     0.02960
C488        C  0.10088354  0.28190031  0.43497294    -0.11130
H489        H  0.16771169  0.26829584  0.42768931     0.08560
H490        H  0.12133611  0.33000580  0.39139104     0.06080
H491        H  0.08284815  0.27317472  0.44309414     0.05930
C492        C  0.08167774  0.42550013  0.28032900     0.02970
C493        C  0.10178183  0.40570418  0.28004892    -0.13180
C494        C  0.11607314  0.40124851  0.25695837     0.00470
C495        C  0.11217617  0.41736126  0.23492530    -0.11710
C496        C  0.09891916  0.44168008  0.23729101     0.02960
C497        C  0.08150817  0.44537333  0.25961743    -0.11130
H498        H  0.10394394  0.39168092  0.29644969     0.08560
H499        H  0.12405587  0.41345354  0.21719205     0.06080
H500        H  0.06832924  0.46265898  0.26073615     0.05930
O501        O  0.27034911  0.27577509  0.19081422    -0.88510
C502        C  0.30653907  0.22798179  0.24440991     0.87520
Mg503      Mg  0.24960508  0.30881036  0.20499683     1.58150
O504        O  0.24572211  0.20243841  0.22037796    -0.88240
O505        O  0.25852924  0.23927596  0.17026695    -0.75570
C506        C  0.17665807  0.27215819  0.30117015     0.92570
O507        O  0.29957520  0.29083596  0.24649838    -0.75380
O508        O  0.18164413  0.29110240  0.28548830    -0.82890
Mg509      Mg  0.30955808  0.27102052  0.20640267     1.57960
C510        C  0.19782511  0.16729161  0.27857782     0.92500
O511        O  0.32107038  0.25235870  0.16726845    -0.81150
H512        H  0.22568695  0.18319507  0.19188288    -0.06490
C513        C  0.24055285  0.23635830  0.29218694     0.87440
O514        O  0.21061141  0.28333028  0.19926785    -0.75660
O515        O  0.29762857  0.23350055  0.22205401    -0.88420
O516        O  0.21621287  0.16471509  0.26124711    -0.81230
C517        C  0.29720898  0.15485076  0.23243052     0.92610
C518        C  0.32177022  0.23024631  0.15486899     0.92460
Mg519      Mg  0.19300740  0.22587163  0.25697559     1.57950
O520        O  0.18132182  0.24808341  0.29470102    -0.81160
O521        O  0.20213156  0.20136849  0.21955193    -0.75400
O522        O  0.29979626  0.17262842  0.21467138    -0.81240
O523        O  0.31999406  0.31180423  0.18961316    -0.82950
O524        O  0.19804278  0.31720063  0.23671165    -0.81270
C525        C  0.22474793  0.19508253  0.20976465     0.86900
O526        O  0.20590741  0.26082436  0.23663305    -0.88410
O527        O  0.23290847  0.22437082  0.27215962    -0.88510
O528        O  0.23868529  0.26165697  0.29365904    -0.75570
Mg529      Mg  0.27886666  0.20623854  0.19447728     1.57970
O530        O  0.27786153  0.15426465  0.24868166    -0.82950
H531        H  0.25050597  0.27662475  0.15631621    -0.06670
O532        O  0.25607401  0.29243571  0.24304725    -0.88210
H533        H  0.27521254  0.30658580  0.27498173    -0.06490
H534        H  0.18057791  0.25675027  0.20601057    -0.06670
C535        C  0.27669099  0.29711983  0.25575076     0.86880
C536        C  0.25997939  0.26455631  0.17159021     0.87460
C537        C  0.19828876  0.26630179  0.21374739     0.87510
H538        H  0.24942117  0.22517802  0.30844219    -0.06650
O539        O  0.29342638  0.21409577  0.26109967    -0.75680
Mg540      Mg  0.21957534  0.29057917  0.26349628     1.58000
H541        H  0.32572833  0.23596520  0.25025264    -0.06670
C542        C  0.30803625  0.33366329  0.19542736     0.92500
O543        O  0.22705468  0.34520360  0.21998194    -0.82910
C544        C  0.20412280  0.34015075  0.22905915     0.92560
O545        O  0.31241189  0.20888761  0.16480388    -0.82890
Mg546      Mg  0.25420751  0.19034721  0.26035155     1.58180
O547        O  0.28725759  0.33403710  0.20997047    -0.81230
O548        O  0.18364704  0.18851265  0.27970066    -0.82920
C549        C  0.02158533  0.37087132  0.36080622     0.00400
C550        C  0.99452256  0.36479037  0.36003059     0.00400
C551        C  0.65708751  0.37202062  0.98931618     0.00400
C552        C  0.65551196  0.36786685  0.01667773     0.00400
C553        C  0.91482739  0.43271236  0.23158516     0.02970
C554        C  0.92767787  0.42879693  0.25679907    -0.13180
C555        C  0.93577604  0.40238345  0.26502312     0.00470
C556        C  0.92762702  0.38094105  0.24889610    -0.11710
C557        C  0.91796571  0.38495750  0.22317475     0.02960
C558        C  0.91177085  0.41072947  0.21481183    -0.11130
H559        H  0.93151116  0.44585956  0.26935401     0.08560
H560        H  0.92945818  0.36059018  0.25609712     0.06080
H561        H  0.90318692  0.41360965  0.19521631     0.05930
C562        C  0.91799957  0.23302001  0.41436395     0.02970
C563        C  0.93616949  0.25449813  0.41854967    -0.13180
C564        C  0.94841940  0.26712420  0.39634105     0.00470
C565        C  0.94102892  0.25929181  0.37079660    -0.11710
C566        C  0.92141200  0.24038440  0.36672685     0.02960
C567        C  0.91180277  0.22567906  0.38813721    -0.11130
H568        H  0.94007348  0.26165449  0.43843547     0.08560
H569        H  0.94767248  0.27101657  0.35384713     0.06080
H570        H  0.89641324  0.21096264  0.38438716     0.05930
C571        C  0.58260977  0.23911390  0.08650884     0.02970
C572        C  0.58514975  0.26455214  0.07421398    -0.13180
C573        C  0.61101199  0.27340405  0.06658533     0.00470
C574        C  0.63360204  0.25830344  0.07469573    -0.11710
C575        C  0.63069945  0.23302291  0.08628642     0.02960
C576        C  0.60521372  0.22271612  0.08925401    -0.11130
H577        H  0.56758684  0.27693891  0.07059048     0.08560
H578        H  0.65351879  0.26633825  0.07178727     0.06080
H579        H  0.60304850  0.20260897  0.09713258     0.05930
C580        C  0.78146074  0.43727913  0.09451990     0.02970
C581        C  0.75434012  0.43780756  0.08523314    -0.13180
C582        C  0.74521380  0.41740000  0.06769813     0.00470
C583        C  0.76374290  0.39767160  0.05966813    -0.11710
C584        C  0.78749930  0.39386218  0.07374776     0.02960
C585        C  0.79755018  0.41485264  0.08880232    -0.11130
H586        H  0.74051749  0.45300201  0.09234275     0.08560
H587        H  0.75677475  0.38121276  0.04753400     0.06080
H588        H  0.81631877  0.41195112  0.09938021     0.05930
C589        C  0.58190732  0.12583980  0.24657132     0.02970
C590        C  0.59436927  0.14814647  0.25761295    -0.13180
C591        C  0.61292535  0.14541721  0.27799593     0.00470
C592        C  0.61705925  0.12047366  0.28978731    -0.11710
C593        C  0.60593470  0.09744707  0.27872333     0.02960
C594        C  0.58783126  0.09999948  0.25706691    -0.11130
H595        H  0.59221922  0.16746440  0.24784158     0.08560
H596        H  0.63253447  0.11844184  0.30485370     0.06080
H597        H  0.57960375  0.08233598  0.24785844     0.05930
C598        C  0.78631421  0.10654323  0.41554995     0.02970
C599        C  0.76648118  0.08696184  0.41084950    -0.13180
C600        C  0.75269379  0.08695864  0.38615019     0.00470
C601        C  0.75795489  0.10721618  0.36749600    -0.11710
C602        C  0.77731754  0.12655161  0.37261938     0.02960
C603        C  0.79206068  0.12525769  0.39587544    -0.11130
H604        H  0.76147644  0.07256915  0.42615919     0.08560
H605        H  0.74638782  0.10838857  0.34927805     0.06080
H606        H  0.80612545  0.14114525  0.40019256     0.05930
O607        O  0.74450852  0.25180008  0.19542859    -0.88510
C608        C  0.77858260  0.20039999  0.24838639     0.87520
Mg609      Mg  0.76028649  0.26058267  0.15729764     1.58150
O610        O  0.78497867  0.26981580  0.25917054    -0.88240
O611        O  0.72915911  0.27343076  0.22996856    -0.75570
C612        C  0.88241963  0.28877617  0.17901014     0.92570
O613        O  0.78017348  0.19979038  0.18253167    -0.75380
O614        O  0.87039919  0.28261962  0.15785586    -0.82890
Mg615      Mg  0.74199910  0.21075741  0.20581055     1.57960
C616        C  0.86072620  0.28518616  0.28194420     0.92500
O617        O  0.70227987  0.21768967  0.22809782    -0.81150
H618        H  0.77041249  0.30602278  0.26889010    -0.06490
C619        C  0.84647508  0.23208317  0.22109535     0.87440
O620        O  0.77767780  0.29891720  0.17484478    -0.75660
O621        O  0.76435829  0.21895366  0.23997682    -0.88420
O622        O  0.83570550  0.28425826  0.28334570    -0.81230
C623        C  0.78255448  0.22507218  0.31582348     0.92610
C624        C  0.69662619  0.21700396  0.25278401     0.92460
Mg625      Mg  0.84264046  0.29100442  0.22419251     1.57950
O626        O  0.87761659  0.27584210  0.20000204    -0.81160
O627        O  0.80549465  0.30689505  0.24809411    -0.75400
O628        O  0.76314546  0.22737683  0.29980862    -0.81240
O629        O  0.71848435  0.20282305  0.16953567    -0.82950
O630        O  0.81666411  0.28522948  0.12957515    -0.81270
C631        C  0.78605165  0.29460727  0.25911033     0.86900
O632        O  0.81706238  0.28730954  0.19057501    -0.88410
O633        O  0.83313310  0.25023976  0.23158973    -0.88510
O634        O  0.84948182  0.23098671  0.19593462    -0.75570
Mg635      Mg  0.74823535  0.25035801  0.26460718     1.57970
O636        O  0.80386769  0.23835900  0.31273755    -0.82950
H637        H  0.71842813  0.28231283  0.19201981    -0.06670
O638        O  0.79550714  0.23736355  0.16612852    -0.88210
H639        H  0.81273669  0.20193133  0.15843505    -0.06490
H640        H  0.80240094  0.32465139  0.19342684    -0.06670
C641        C  0.79669962  0.21270883  0.16828871     0.86880
C642        C  0.73001934  0.26946736  0.20509552     0.87460
C643        C  0.79951439  0.30450709  0.18641337     0.87510
H644        H  0.85598430  0.21706025  0.23351906    -0.06650
O645        O  0.80065081  0.20498444  0.25990970    -0.75680
Mg646      Mg  0.83230303  0.25830863  0.16223934     1.58000
H647        H  0.77241315  0.17995530  0.24532823    -0.06670
C648        C  0.72157639  0.20936275  0.14533776     0.92500
O649        O  0.77616535  0.27243476  0.11698382    -0.82910
C650        C  0.79627842  0.28765053  0.11473893     0.92560
O651        O  0.71085991  0.22804376  0.27026859    -0.82890
Mg652      Mg  0.81857302  0.24539873  0.27108548     1.58180
O653        O  0.74024908  0.22481786  0.13779125    -0.81230
O654        O  0.87125160  0.29139880  0.25992780    -0.82920
C655        C  0.66831598  0.02289631  0.33981280     0.00400
C656        C  0.66945696  0.99546972  0.33893290     0.00400
C657        C  0.76777671  0.90076967  0.43044105     0.02970
C658        C  0.75797862  0.92622573  0.42170575    -0.13180
C659        C  0.73735273  0.92739548  0.40207340     0.00470
C660        C  0.72704950  0.90361796  0.39188857    -0.11710
C661        C  0.73765832  0.87913126  0.39959273     0.02960
C662        C  0.75728219  0.87769188  0.41895701    -0.11130
H663        H  0.76630308  0.94446409  0.42961096     0.08560
H664        H  0.71239737  0.90425175  0.37593910     0.06080
H665        H  0.76596907  0.85822828  0.42367881     0.05930
C666        C  0.62468785  0.93039730  0.25515403     0.02970
C667        C  0.64431490  0.91019821  0.25287130    -0.13180
C668        C  0.64092964  0.88921962  0.23507755     0.00470
C669        C  0.62152624  0.89205835  0.21540331    -0.11710
C670        C  0.59872118  0.90768798  0.22044506     0.02960
C671        C  0.60045675  0.92801579  0.24017045    -0.11130
H672        H  0.66092321  0.90943431  0.26678037     0.08560
H673        H  0.62013817  0.87686863  0.20016598     0.06080
H674        H  0.58343853  0.94097723  0.24421226     0.05930
C675        C  0.94268327  0.76616174  0.38922585     0.02970
C676        C  0.93814337  0.77267696  0.41646104    -0.13180
C677        C  0.92412443  0.79676675  0.42298123     0.00470
C678        C  0.91619921  0.81406858  0.40257319    -0.11710
C679        C  0.91519704  0.80498496  0.37658215     0.02960
C680        C  0.92889348  0.78138894  0.36989527    -0.11130
H681        H  0.94519928  0.75945229  0.43209426     0.08560
H682        H  0.90609366  0.83273638  0.40751051     0.06080
H683        H  0.92842561  0.77445295  0.34952211     0.05930
C684        C  0.94170664  0.62416799  0.25560334     0.02970
C685        C  0.93056123  0.59959091  0.24672410    -0.13180
C686        C  0.91071449  0.59993441  0.22624535     0.00470
C687        C  0.90201016  0.62457549  0.21571019    -0.11710
C688        C  0.91303773  0.64831621  0.22467661     0.02960
C689        C  0.93336049  0.64786146  0.24331562    -0.11130
H690        H  0.93669455  0.58083001  0.25578970     0.08560
H691        H  0.88558853  0.62534462  0.20158812     0.06080
H692        H  0.94078417  0.66691883  0.25042819     0.05930
C693        C  0.61881245  0.75228112  0.06927250     0.02970
C694        C  0.59245859  0.76153313  0.07609660    -0.13180
C695        C  0.58925700  0.78584223  0.09077226     0.00470
C696        C  0.61214699  0.79885233  0.10004526    -0.11710
C697        C  0.63730776  0.78755741  0.09612836     0.02960
C698        C  0.64036564  0.76890150  0.07588702    -0.11130
H699        H  0.57506444  0.74973067  0.07122760     0.08560
H700        H  0.61004641  0.81444916  0.11488718     0.06080
H701        H  0.66054157  0.76346433  0.07000258     0.05930
C702        C  0.77639536  0.59277064  0.10092838     0.02970
C703        C  0.75669930  0.58997959  0.08054663    -0.13180
C704        C  0.74680008  0.61327963  0.06721488     0.00470
C705        C  0.75693398  0.63813535  0.07438560    -0.11710
C706        C  0.77316235  0.64113696  0.09645492     0.02960
C707        C  0.78325572  0.61853154  0.10941357    -0.11130
H708        H  0.74994104  0.57033464  0.07472324     0.08560
H709        H  0.75097428  0.65584801  0.06333398     0.06080
H710        H  0.79676666  0.62092986  0.12610366     0.05930
O711        O  0.78948488  0.76229893  0.27877351    -0.88510
C712        C  0.72558624  0.80856440  0.25965907     0.87520
Mg713      Mg  0.82681055  0.76495266  0.25822704     1.58150
O714        O  0.72164388  0.73982439  0.24712159    -0.88240
O715        O  0.75951860  0.73478163  0.29568058    -0.75570
C716        C  0.79110675  0.74456673  0.14101741     0.92570
O717        O  0.78915780  0.82200849  0.25273063    -0.75380
O718        O  0.81314759  0.75421969  0.14841875    -0.82890
Mg719      Mg  0.77347379  0.79998998  0.28996728     1.57960
C720        C  0.69722058  0.72930249  0.17138640     0.92500
O721        O  0.75851256  0.77831788  0.32633849    -0.81150
H722        H  0.72021909  0.70135052  0.25840661    -0.06490
C723        C  0.74493032  0.78952182  0.18659608     0.87440
O724        O  0.81643103  0.72551066  0.23754001    -0.75660
O725        O  0.73791540  0.78992810  0.27040215    -0.88420
O726        O  0.69386013  0.72745422  0.19615818    -0.81230
C727        C  0.66306346  0.77874473  0.25839241     0.92610
C728        C  0.73615400  0.78521633  0.33605044     0.92460
Mg729      Mg  0.75483640  0.72992433  0.18564793     1.57950
O730        O  0.77016060  0.75366902  0.15152863    -0.81160
O731        O  0.73829013  0.70736636  0.22261120    -0.75400
O732        O  0.67840887  0.77741351  0.27850733    -0.81240
O733        O  0.81080751  0.81155236  0.31084190    -0.82950
O734        O  0.84914153  0.75225558  0.19726576    -0.81270
C735        C  0.72634054  0.71568225  0.24349370     0.86900
O736        O  0.78976641  0.73984962  0.20643488    -0.88410
O737        O  0.73942818  0.76820737  0.19808994    -0.88510
O738        O  0.76913121  0.79592241  0.18127479    -0.75570
Mg739      Mg  0.71825200  0.75526355  0.28652529     1.57970
O740        O  0.66425772  0.76075051  0.24086746    -0.82950
H741        H  0.79985417  0.72805779  0.29712930    -0.06670
O742        O  0.80800797  0.79027830  0.22902692    -0.88210
H743        H  0.80800482  0.82868296  0.21752662    -0.06490
H744        H  0.79971154  0.70109920  0.21009702    -0.06670
C745        C  0.80222452  0.81417972  0.23241051     0.86880
C746        C  0.78379598  0.74125878  0.29070814     0.87460
C747        C  0.80185245  0.72126592  0.21745848     0.87510
H748        H  0.72879991  0.80294090  0.18081243    -0.06650
O749        O  0.71132046  0.80455716  0.23927636    -0.75680
Mg750      Mg  0.81002244  0.77424467  0.18968441     1.58000
H751        H  0.72725952  0.82858571  0.26752242    -0.06670
C752        C  0.83467435  0.81275550  0.30227590     0.92500
O753        O  0.86520628  0.76718881  0.23523317    -0.82910
C754        C  0.86679534  0.75182969  0.21534488     0.92560
O755        O  0.71503186  0.77448515  0.32742935    -0.82890
Mg756      Mg  0.70228914  0.76488191  0.21812247     1.58180
O757        O  0.84166364  0.80115228  0.28096692    -0.81230
O758        O  0.71841466  0.71981053  0.16144993    -0.82920
C759        C  0.99986024  0.67590414  0.33997771     0.00400
C760        C  0.02704662  0.67259070  0.34391601     0.00400
C761        C  0.27360783  0.93800360  0.39228934     0.02970
C762        C  0.27791758  0.91465075  0.37752635    -0.13180
C763        C  0.26362816  0.89143259  0.38309330     0.00470
C764        C  0.24136999  0.89312597  0.39964894    -0.11710
C765        C  0.23783294  0.91500987  0.41673919     0.02960
C766        C  0.25402501  0.93797017  0.41289339    -0.11130
H767        H  0.29485199  0.91353585  0.36400099     0.08560
H768        H  0.23020512  0.87505288  0.40369168     0.06080
H769        H  0.25273660  0.95455987  0.42661717     0.05930
C770        C  0.44567983  0.90104667  0.25164692     0.02970
C771        C  0.44187318  0.92553609  0.26580263    -0.13180
C772        C  0.42359515  0.92621328  0.28765971     0.00470
C773        C  0.41103185  0.90257875  0.29535828    -0.11710
C774        C  0.41142527  0.88042859  0.27883089     0.02960
C775        C  0.42955535  0.87918792  0.25803844    -0.11130
H776        H  0.45201023  0.94353735  0.25949590     0.08560
H777        H  0.39628156  0.90342174  0.31122290     0.06080
H778        H  0.42981462  0.86152807  0.24552768     0.05930
C779        C  0.26407687  0.61855021  0.07636210     0.02970
C780        C  0.25134162  0.59361704  0.08129309    -0.13180
C781        C  0.23247095  0.59151585  0.10237837     0.00470
C782        C  0.22705350  0.61382622  0.11801915    -0.11710
C783        C  0.23843164  0.63857654  0.11252115     0.02960
C784        C  0.25708581  0.64075607  0.09193235    -0.11130
H785        H  0.25552730  0.57655426  0.06871888     0.08560
H786        H  0.21350840  0.61180784  0.13477800     0.06080
H787        H  0.26609139  0.65999540  0.08773766     0.05930
C788        C  0.09419752  0.60499734  0.27741333     0.02970
C789        C  0.09079223  0.58682679  0.25581009    -0.13180
C790        C  0.11386181  0.57425525  0.24446115     0.00470
C791        C  0.13909750  0.58093097  0.25433408    -0.11710
C792        C  0.14233077  0.59924877  0.27428573     0.02960
C793        C  0.12012752  0.61019201  0.28677792    -0.11130
H794        H  0.07100531  0.58288597  0.24799083     0.08560
H795        H  0.15714060  0.57247816  0.24561362     0.06080
H796        H  0.12315397  0.62447078  0.30266242     0.05930
C797        C  0.10011910  0.73962294  0.40367786     0.02970
C798        C  0.09823843  0.76557144  0.41525675    -0.13180
C799        C  0.12106058  0.77684803  0.42757452     0.00470
C800        C  0.14421773  0.76101344  0.42977786    -0.11710
C801        C  0.14757949  0.73699253  0.41596188     0.02960
C802        C  0.12515656  0.72625653  0.40317204    -0.11130
H803        H  0.07956734  0.77677799  0.41442625     0.08560
H804        H  0.16094957  0.76869346  0.44078930     0.06080
H805        H  0.12712505  0.70799519  0.39182440     0.05930
C806        C  0.39149059  0.74567999  0.08996755     0.02970
C807        C  0.41648363  0.75967517  0.09095305    -0.13180
C808        C  0.41899339  0.78301838  0.10692710     0.00470
C809        C  0.39625394  0.79360497  0.11924812    -0.11710
C810        C  0.37280099  0.77891802  0.12058012     0.02960
C811        C  0.37137735  0.75438309  0.10763742    -0.11130
H812        H  0.43370600  0.75333426  0.07971701     0.08560
H813        H  0.39765143  0.81234417  0.12993780     0.06080
H814        H  0.35376230  0.74232595  0.11102056     0.05930
O815        O  0.24296208  0.71177237  0.30551992    -0.88510
C816        C  0.31997819  0.72609048  0.32368126     0.87520
Mg817      Mg  0.23340704  0.69943889  0.26629273     1.58150
O818        O  0.27438800  0.78014414  0.32039611    -0.88240
O819        O  0.23198223  0.73853846  0.33791914    -0.75570
C820        C  0.28519051  0.78950413  0.19043440     0.92570
O821        O  0.29729951  0.68676672  0.28142897    -0.75380
O822        O  0.27113535  0.76861715  0.18812212    -0.82890
Mg823      Mg  0.27551577  0.68872209  0.32272779     1.57960
C824        C  0.30454787  0.84181809  0.27908522     0.92500
O825        O  0.25183626  0.69091556  0.36235205    -0.81150
H826        H  0.24004212  0.79716166  0.33292042    -0.06490
C827        C  0.31826621  0.76992455  0.25263239     0.87440
O828        O  0.21375164  0.74099625  0.25776194    -0.75660
O829        O  0.29556653  0.72550327  0.32833072    -0.88420
O830        O  0.29657068  0.82946850  0.29939362    -0.81230
C831        C  0.31846708  0.79373805  0.36603136     0.92610
C832        C  0.25365714  0.70600277  0.38253450     0.92460
Mg833      Mg  0.26726330  0.80276569  0.25299906     1.57950
O834        O  0.28619125  0.80236232  0.21211194    -0.81160
O835        O  0.24804869  0.80438424  0.29426499    -0.75400
O836        O  0.31245542  0.76917978  0.36826922    -0.81240
O837        O  0.25330236  0.65001635  0.31686336    -0.82950
O838        O  0.23065784  0.72555723  0.20731610    -0.81270
C839        C  0.25387896  0.79406929  0.31671886     0.86900
O840        O  0.24809595  0.76588472  0.24685824    -0.88410
O841        O  0.30076314  0.77863406  0.26772841    -0.88510
O842        O  0.31234366  0.75406185  0.23403750    -0.75570
Mg843      Mg  0.27352221  0.75279167  0.35261272     1.57970
O844        O  0.33113423  0.80137968  0.34576489    -0.82950
H845        H  0.20465438  0.71854671  0.31571259    -0.06670
O846        O  0.27217343  0.71215976  0.25522707    -0.88210
H847        H  0.30572953  0.69390255  0.24241292    -0.06490
H848        H  0.21052267  0.78047161  0.24790051    -0.06670
C849        C  0.29226225  0.69764656  0.25885322     0.86880
C850        C  0.22558197  0.72263754  0.31938435     0.87460
C851        C  0.22368259  0.76336756  0.25068606     0.87510
H852        H  0.33892055  0.77563970  0.25553161    -0.06650
O853        O  0.33114344  0.74681557  0.31412534    -0.75680
Mg854      Mg  0.27074939  0.73938272  0.22215715     1.58000
H855        H  0.33194953  0.70824212  0.32704212    -0.06670
C856        C  0.24411453  0.64604714  0.29390569     0.92500
O857        O  0.22538346  0.68542438  0.22429567    -0.82910
C858        C  0.22619495  0.70098585  0.20439767     0.92560
O859        O  0.27350079  0.72145923  0.38481452    -0.82890
Mg860      Mg  0.31450233  0.78906722  0.30603729     1.58180
O861        O  0.25317409  0.65972325  0.27487649    -0.81230
O862        O  0.28985804  0.84162682  0.25869075    -0.82920
C863        C  0.35825602  0.67863082  0.00250427     0.00400
C864        C  0.33719483  0.66130546  0.99658715     0.00400
C865        C  0.35605837  0.72209461  0.06318173    -0.26480
C866        C  0.38360175  0.72384600  0.07032531    -0.14550
C867        C  0.40126899  0.70471872  0.05855488     0.36080
C868        C  0.39165126  0.68717687  0.03885569    -0.25930
C869        C  0.36464013  0.68758136  0.03040250    -0.15170
C870        C  0.34646873  0.70383747  0.04444458     0.37160
N871        N  0.31854349  0.70423440  0.03770977    -0.89420
H872        H  0.34144675  0.73629875  0.07066479     0.18280
H873        H  0.40593284  0.67447458  0.02850437     0.18270
N874        N  0.42902008  0.70253651  0.06550243    -0.88440
H875        H  0.31298612  0.72368813  0.03215154     0.35650
H876        H  0.30769654  0.69928506  0.05479366     0.40740
H877        H  0.43098086  0.70306542  0.08617059     0.40360
H878        H  0.43941854  0.71822937  0.05664012     0.35250
C879        C  0.33139426  0.79993143  0.17958983    -0.26480
C880        C  0.30535179  0.79536669  0.17008965    -0.14550
C881        C  0.30144563  0.78962625  0.14291880     0.36080
C882        C  0.32388443  0.78627763  0.12656319    -0.25930
C883        C  0.34999587  0.78801477  0.13691107    -0.15170
C884        C  0.35371793  0.79561155  0.16351491     0.37160
N885        N  0.37999921  0.79653011  0.17501852    -0.89420
H886        H  0.33480208  0.80370312  0.20049716     0.18280
H887        H  0.32093891  0.78103274  0.10589424     0.18270
N888        N  0.27526214  0.78659744  0.13146016    -0.88440
H889        H  0.38086183  0.78276192  0.19070608     0.35650
H890        H  0.38276189  0.81565867  0.18285363     0.40740
H891        H  0.26015954  0.79179886  0.14490799     0.40360
H892        H  0.27293283  0.76640705  0.12666733     0.35250
C893        C  0.19610205  0.74553018  0.40958983    -0.26480
C894        C  0.17559233  0.72656495  0.41174037    -0.14550
C895        C  0.18246848  0.69919383  0.40845009     0.36080
C896        C  0.20893537  0.69212105  0.40075940    -0.25930
C897        C  0.22891535  0.71168709  0.39787900    -0.15170
C898        C  0.22237311  0.73848045  0.40372476     0.37160
N899        N  0.24164622  0.75940636  0.40113092    -0.89420
H900        H  0.19180807  0.76665936  0.41082112     0.18280
H901        H  0.21377598  0.67145813  0.39619150     0.18270
N902        N  0.16275382  0.67880998  0.41253466    -0.88440
H903        H  0.24294436  0.76929727  0.41934752     0.35650
H904        H  0.23422005  0.77305313  0.38710586     0.40740
H905        H  0.15705251  0.67945418  0.43251592     0.40360
H906        H  0.17112003  0.65983262  0.40929198     0.35250
C907        C  0.17984581  0.60769041  0.30504516    -0.26480
C908        C  0.16922537  0.60921875  0.27935848    -0.14550
C909        C  0.18429317  0.62065954  0.25852348     0.36080
C910        C  0.20976606  0.62974610  0.26370403    -0.25930
C911        C  0.22005747  0.62994171  0.28961435    -0.15170
C912        C  0.20504566  0.61853012  0.31064256     0.37160
N913        N  0.21479148  0.61868752  0.33752510    -0.89420
H914        H  0.16803417  0.59888734  0.32085432     0.18280
H915        H  0.22087701  0.63831961  0.24731195     0.18270
N916        N  0.17361461  0.62536057  0.23239734    -0.88440
H917        H  0.20220844  0.60755803  0.34989167     0.35650
H918        H  0.21346901  0.63840144  0.34433641     0.40740
H919        H  0.15518601  0.63538625  0.23402665     0.40360
H920        H  0.17104602  0.60730317  0.22245151     0.35250
C921        C  0.29125945  0.65232694  0.01515768    -0.26480
C922        C  0.31927572  0.64898036  0.01774793    -0.14550
C923        C  0.32881799  0.63205133  0.03835923     0.36080
C924        C  0.31032757  0.62026508  0.05637902    -0.25930
C925        C  0.28238147  0.62399918  0.05351958    -0.15170
C926        C  0.27296710  0.63985767  0.03211701     0.37160
N927        N  0.24483102  0.64439159  0.02730452    -0.89420
H928        H  0.28307074  0.66512602  0.99982024     0.18280
H929        H  0.31775842  0.60879520  0.07318486     0.18270
N930        N  0.35709054  0.62696243  0.04102258    -0.88440
H931        H  0.24060763  0.66450375  0.03135590     0.35650
H932        H  0.23278752  0.63285315  0.03976328     0.40740
H933        H  0.36345640  0.61680476  0.02399388     0.40360
H934        H  0.36083066  0.61419135  0.05713056     0.35250
C935        C  0.25505542  0.67440168  0.14133396    -0.26480
C936        C  0.23294437  0.66104460  0.13071726    -0.14550
C937        C  0.20707107  0.66546338  0.14181781     0.36080
C938        C  0.20488955  0.67896500  0.16600915    -0.25930
C939        C  0.22758130  0.68992531  0.17779567    -0.15170
C940        C  0.25255504  0.68906116  0.16473952     0.37160
N941        N  0.27562679  0.70168013  0.17622182    -0.89420
H942        H  0.27481928  0.67147381  0.13281074     0.18280
H943        H  0.18554083  0.68070245  0.17571715     0.18270
N944        N  0.18297021  0.65580627  0.12955477    -0.88440
H945        H  0.29236113  0.69951647  0.16385533     0.35650
H946        H  0.28022545  0.69162818  0.19392488     0.40740
H947        H  0.18698794  0.64843171  0.11056709     0.40360
H948        H  0.17026339  0.67230376  0.12650895     0.35250
C949        C  0.37179972  0.86628290  0.25418686    -0.26480
C950        C  0.38695509  0.86457189  0.27761997    -0.14550
C951        C  0.37545441  0.85433782  0.30089531     0.36080
C952        C  0.34823033  0.84815650  0.30091116    -0.25930
C953        C  0.33259768  0.85065578  0.27774190    -0.15170
C954        C  0.34486979  0.85944973  0.25391113     0.37160
N955        N  0.33061980  0.86264287  0.22937557    -0.89420
H956        H  0.38043176  0.87479100  0.23630339     0.18280
H957        H  0.33912278  0.84188955  0.31933699     0.18270
N958        N  0.39126526  0.85153344  0.32464301    -0.88440
H959        H  0.31469141  0.87608317  0.23221281     0.35650
H960        H  0.32330950  0.84408814  0.22346774     0.40740
H961        H  0.40647939  0.83755376  0.32072263     0.40360
H962        H  0.37975994  0.84352256  0.34003975     0.35250
C963        C  0.30387936  0.86262374  0.38817797    -0.26480
C964        C  0.27693855  0.86494897  0.37996251    -0.14550
C965        C  0.26283119  0.84137933  0.37350131     0.36080
C966        C  0.27619223  0.81667172  0.37493634    -0.25930
C967        C  0.30373296  0.81500511  0.37979797    -0.15170
C968        C  0.31749539  0.83812960  0.38772611     0.37160
N969        N  0.34536628  0.83745257  0.39504100    -0.89420
H970        H  0.31465598  0.88004488  0.39492366     0.18280
H971        H  0.26578878  0.79894360  0.36909536     0.18270
N972        N  0.23586522  0.84179817  0.36339640    -0.88440
H973        H  0.35592080  0.84862197  0.38097537     0.35650
H974        H  0.35310381  0.81795303  0.39470555     0.40740
H975        H  0.22916571  0.86118451  0.35910465     0.40360
H976        H  0.22333848  0.83356058  0.37788590     0.35250
C977        C  0.06873868  0.70109064  0.40136553    -0.26480
C978        C  0.07704038  0.72578324  0.39083836    -0.14550
C979        C  0.06714373  0.73383640  0.36580373     0.36080
C980        C  0.05012530  0.71662715  0.35149231    -0.25930
C981        C  0.04250122  0.69143492  0.36157819    -0.15170
C982        C  0.05165841  0.68394430  0.38725286     0.37160
N983        N  0.04449243  0.65904770  0.39959981    -0.89420
H984        H  0.07651719  0.69455108  0.42045025     0.18280
H985        H  0.04366880  0.72249053  0.33178118     0.18270
N986        N  0.07580100  0.75863056  0.35422823    -0.88440
H987        H  0.06191834  0.64733973  0.40115323     0.35650
H988        H  0.03098796  0.64840807  0.38807996     0.40740
H989        H  0.06801116  0.77414584  0.36585813     0.40360
H990        H  0.06757164  0.76115787  0.33526895     0.35250
C991        C  0.06187491  0.66494916  0.30922587    -0.26480
C992        C  0.04323144  0.65359844  0.32676840    -0.14550
C993        C  0.03921889  0.62536552  0.32562006     0.36080
C994        C  0.05412335  0.60974668  0.30737572    -0.25930
C995        C  0.07255387  0.62147339  0.28988047    -0.15170
C996        C  0.07555168  0.64955009  0.29023885     0.37160
N997        N  0.09357535  0.66218225  0.27181527    -0.89420
H998        H  0.06493902  0.68632826  0.30932051     0.18280
H999        H  0.05226105  0.58815744  0.30781483     0.18270
N1000       N  0.02092697  0.61166428  0.34292701    -0.88440
H1001       H  0.09385963  0.68288750  0.27471612     0.35650
H1002       H  0.08605558  0.65907710  0.25269785     0.40740
H1003       H  0.01105343  0.62481403  0.35567038     0.40360
H1004       H  0.03222519  0.59870467  0.35495095     0.35250
C1005       C  0.80494134  0.67581572  0.11199984    -0.26480
C1006       C  0.77851535  0.66826990  0.10618025    -0.14550
C1007       C  0.75726678  0.68680536  0.11000188     0.36080
C1008       C  0.76307622  0.71258013  0.11776900    -0.25930
C1009       C  0.78903606  0.71980823  0.12545924    -0.15170
C1010       C  0.81037703  0.70121746  0.12255142     0.37160
N1011       N  0.83706068  0.70762642  0.13110328    -0.89420
H1012       H  0.82117731  0.66152117  0.10922622     0.18280
H1013       H  0.74649981  0.72659804  0.11968455     0.18270
N1014       N  0.72946477  0.67955561  0.10888816    -0.88440
H1015       H  0.85041922  0.69208063  0.12643784     0.35650
H1016       H  0.83678897  0.70877044  0.15184497     0.40740
H1017       H  0.72652468  0.66218910  0.12013647     0.40360
H1018       H  0.72338452  0.67650857  0.08934340     0.35250
C1019       C  0.63977391  0.76731450  0.14045037    -0.26480
C1020       C  0.65317861  0.78146686  0.12014532    -0.14550
C1021       C  0.68142675  0.78134271  0.11957432     0.36080
C1022       C  0.69537894  0.76502470  0.13748382    -0.25930
C1023       C  0.68171502  0.74864578  0.15569454    -0.15170
C1024       C  0.65372901  0.75051408  0.15796454     0.37160
N1025       N  0.63942695  0.73362750  0.17624314    -0.89420
H1026       H  0.61807715  0.76699205  0.14084810     0.18280
H1027       H  0.71707747  0.76441491  0.13646206     0.18270
N1028       N  0.69638003  0.79656348  0.10044987    -0.88440
H1029       H  0.61871522  0.73641937  0.17418921     0.35650
H1030       H  0.64413185  0.73967452  0.19550073     0.40740
H1031       H  0.68370249  0.80855277  0.08882442     0.40360
H1032       H  0.70599445  0.78303239  0.08773489     0.35250
C1033       C  0.98286091  0.64451604  0.27252435    -0.26480
C1034       C  0.96065377  0.62830783  0.27837678    -0.14550
C1035       C  0.95194574  0.62716120  0.30525594     0.36080
C1036       C  0.96512406  0.64248928  0.32480154    -0.25930
C1037       C  0.98574307  0.66046616  0.31826371    -0.15170
C1038       C  0.99353834  0.66225231  0.29115416     0.37160
N1039       N  0.00984510  0.68357179  0.28101718    -0.89420
H1040       H  0.98899143  0.64678115  0.25195525     0.18280
H1041       H  0.95849128  0.64083987  0.34518284     0.18270
N1042       N  0.92922054  0.61167258  0.31341055    -0.88440
H1043       H  0.02658293  0.67522492  0.27158187     0.35650
H1044       H  0.01646645  0.69624273  0.29596381     0.40740
H1045       H  0.92138159  0.60065730  0.29775391     0.40360
H1046       H  0.91420116  0.62504791  0.31950342     0.35250
C1047       C  0.90577252  0.68939724  0.19776353    -0.26480
C1048       C  0.89984059  0.67410465  0.22036439    -0.14550
C1049       C  0.88527802  0.68550784  0.24154201     0.36080
C1050       C  0.87789110  0.71219214  0.24029150    -0.25930
C1051       C  0.88302687  0.72756299  0.21756101    -0.15170
C1052       C  0.89701339  0.71609986  0.19586419     0.37160
N1053       N  0.90269706  0.73086821  0.17197455    -0.89420
H1054       H  0.91751672  0.68068807  0.18180843     0.18280
H1055       H  0.86634429  0.72046529  0.25663683     0.18270
N1056       N  0.87729504  0.67022672  0.26437923    -0.88440
H1057       H  0.92355051  0.73158177  0.16991682     0.35650
H1058       H  0.89620090  0.75072570  0.17351816     0.40740
H1059       H  0.89428348  0.66355107  0.27465444     0.40360
H1060       H  0.86654985  0.65360900  0.25789545     0.35250
C1061       C  0.98670183  0.72396079  0.34330895    -0.26480
C1062       C  0.98488135  0.69815073  0.35405757    -0.14550
C1063       C  0.97102606  0.69501051  0.37859323     0.36080
C1064       C  0.95803139  0.71736860  0.39041728    -0.25930
C1065       C  0.96004983  0.74327593  0.37945925    -0.15170
C1066       C  0.97649384  0.74650300  0.35653349     0.37160
N1067       N  0.98368893  0.77241741  0.34625114    -0.89420
H1068       H  0.99757819  0.72700723  0.32497171     0.18280
H1069       H  0.94609180  0.71436037  0.40814541     0.18270
N1070       N  0.96986016  0.66974313  0.39223057    -0.88440
H1071       H  0.00462034  0.77286666  0.34486619     0.35650
H1072       H  0.97906260  0.78748419  0.35983932     0.40740
H1073       H  0.98132852  0.65513499  0.38265586     0.40360
H1074       H  0.94992593  0.66344054  0.39194406     0.35250
C1075       C  0.90256321  0.82045215  0.33117830    -0.26480
C1076       C  0.89548649  0.81687205  0.35791256    -0.14550
C1077       C  0.86851091  0.82132064  0.36584991     0.36080
C1078       C  0.84907413  0.82633480  0.34652860    -0.25930
C1079       C  0.85550155  0.82427019  0.31953588    -0.15170
C1080       C  0.88282792  0.82477100  0.31181934     0.37160
N1081       N  0.89103318  0.82797514  0.28460609    -0.89420
H1082       H  0.92335439  0.81843449  0.32513251     0.18280
H1083       H  0.82824993  0.82741146  0.35267280     0.18270
N1084       N  0.86015947  0.81717238  0.39288906    -0.88440
H1085       H  0.90475922  0.84366444  0.28397693     0.35650
H1086       H  0.87492015  0.83478326  0.27308988     0.40740
H1087       H  0.86132669  0.79658923  0.39652622     0.40360
H1088       H  0.84005043  0.82268119  0.39555551     0.35250
C1089       C  0.65491611  0.84354217  0.22124829    -0.26480
C1090       C  0.64930624  0.86143858  0.24197274    -0.14550
C1091       C  0.64493178  0.85101754  0.26782148     0.36080
C1092       C  0.64718357  0.82345922  0.27241684    -0.25930
C1093       C  0.65242369  0.80562304  0.25160126    -0.15170
C1094       C  0.65502014  0.81582141  0.22543906     0.37160
N1095       N  0.65883370  0.79814518  0.20329426    -0.89420
H1096       H  0.65793195  0.85120339  0.20131287     0.18280
H1097       H  0.64529669  0.81596479  0.29256994     0.18270
N1098       N  0.63732014  0.86810569  0.28939961    -0.88440
H1099       H  0.66183568  0.80891689  0.18570317     0.35650
H1100       H  0.64087561  0.78782729  0.20085724     0.40740
H1101       H  0.65153033  0.86582739  0.30453386     0.40360
H1102       H  0.61878984  0.86174337  0.29668773     0.35250
C1103       C  0.71535471  0.83716376  0.38694921    -0.26480
C1104       C  0.73508382  0.85635515  0.38203322    -0.14550
C1105       C  0.75426382  0.85243080  0.36177504     0.36080
C1106       C  0.75376984  0.82890884  0.34750969    -0.25930
C1107       C  0.73480130  0.80910497  0.35269913    -0.15170
C1108       C  0.71492205  0.81335264  0.37219736     0.37160
N1109       N  0.69491227  0.79345790  0.37723582    -0.89420
H1110       H  0.70084906  0.84049554  0.40266437     0.18280
H1111       H  0.76839725  0.82633164  0.33191872     0.18270
N1112       N  0.77501673  0.87135435  0.35553183    -0.88440
H1113       H  0.68177020  0.79988868  0.39215164     0.35650
H1114       H  0.70474089  0.77639030  0.38456329     0.40740
H1115       H  0.77436340  0.88828369  0.36752132     0.40360
H1116       H  0.77182842  0.87805213  0.33606940     0.35250
C1117       C  0.70410727  0.96433163  0.40055632    -0.26480
C1118       C  0.72667080  0.95207504  0.38909864    -0.14550
C1119       C  0.73125767  0.95591833  0.36153626     0.36080
C1120       C  0.71183735  0.96900884  0.34586580    -0.25930
C1121       C  0.68845414  0.98016612  0.35697367    -0.15170
C1122       C  0.68502585  0.97830214  0.38504299     0.37160
N1123       N  0.66194796  0.98902852  0.39850115    -0.89420
H1124       H  0.69997597  0.96098959  0.42145117     0.18280
H1125       H  0.71534491  0.97076086  0.32472723     0.18270
N1126       N  0.75467073  0.94516803  0.34855062    -0.88440
H1127       H  0.65187268  0.97303264  0.40732939     0.35650
H1128       H  0.64849232  0.99751954  0.38514126     0.40740
H1129       H  0.76810115  0.93710764  0.36241412     0.40360
H1130       H  0.76469035  0.96119202  0.33969959     0.35250
C1131       C  0.63278252  0.96521114  0.32181726    -0.26480
C1132       C  0.65565460  0.98073461  0.31678568    -0.14550
C1133       C  0.66561062  0.98192974  0.29054728     0.36080
C1134       C  0.65283503  0.96784812  0.27011860    -0.25930
C1135       C  0.63052805  0.95162648  0.27510564    -0.15170
C1136       C  0.62025047  0.95048026  0.30127094     0.37160
N1137       N  0.59823912  0.93309535  0.30716586    -0.89420
H1138       H  0.62513483  0.96403873  0.34193138     0.18280
H1139       H  0.66166585  0.96802369  0.25042806     0.18270
N1140       N  0.68968028  0.99623416  0.28471993    -0.88440
H1141       H  0.59345239  0.93397214  0.32737182     0.35650
H1142       H  0.58148684  0.94039172  0.29685743     0.40740
H1143       H  0.70386627  0.98252497  0.27752286     0.40360
H1144       H  0.68549269  0.00974940  0.26933290     0.35250
C1145       C  0.70530483  0.07123523  0.38620233    -0.26480
C1146       C  0.73218925  0.06685899  0.37872155    -0.14550
C1147       C  0.73787677  0.04766994  0.35882446     0.36080
C1148       C  0.71679210  0.03405265  0.34660081    -0.25930
C1149       C  0.68989923  0.03813570  0.35410796    -0.15170
C1150       C  0.68410706  0.05707877  0.37410689     0.37160
N1151       N  0.65675017  0.06257099  0.38139361    -0.89420
H1152       H  0.70076218  0.08667726  0.40062019     0.18280
H1153       H  0.72149775  0.02045776  0.33053434     0.18270
N1154       N  0.76477180  0.04189455  0.35004452    -0.88440
H1155       H  0.65584606  0.07751566  0.39585476     0.35650
H1156       H  0.64907667  0.04529300  0.39018170     0.40740
H1157       H  0.77905389  0.05192540  0.36131608     0.40360
H1158       H  0.76651946  0.04872074  0.33046255     0.35250
C1159       C  0.75567747  0.16721563  0.35476453    -0.26480
C1160       C  0.77887443  0.15137484  0.35708567    -0.14550
C1161       C  0.80379815  0.16163048  0.34896659     0.36080
C1162       C  0.80505783  0.18739444  0.33819609    -0.25930
C1163       C  0.78167149  0.20286383  0.33485022    -0.15170
C1164       C  0.75685892  0.19284582  0.34371243     0.37160
N1165       N  0.73278400  0.20854927  0.34119678    -0.89420
H1166       H  0.73663204  0.15986813  0.36204183     0.18280
H1167       H  0.82413827  0.19454031  0.33081142     0.18270
N1168       N  0.82773635  0.14567035  0.35116670    -0.88440
H1169       H  0.72448545  0.21090676  0.36013609     0.35650
H1170       H  0.71918171  0.19783063  0.32965169     0.40740
H1171       H  0.84140994  0.15603902  0.36294066     0.40360
H1172       H  0.83603685  0.14365166  0.33219100     0.35250
C1173       C  0.60648359  0.05820924  0.30913792    -0.26480
C1174       C  0.61828677  0.07179401  0.28778016    -0.14550
C1175       C  0.64568396  0.06658173  0.28200280     0.36080
C1176       C  0.66117875  0.05107775  0.29955179    -0.25930
C1177       C  0.64982315  0.03839956  0.32165848    -0.15170
C1178       C  0.62164052  0.04103613  0.32570324     0.37160
N1179       N  0.60777021  0.02768909  0.34684796    -0.89420
H1180       H  0.58564631  0.06221540  0.31398765     0.18280
H1181       H  0.68252695  0.04909851  0.29593647     0.18270
N1182       N  0.65866344  0.07745192  0.25892224    -0.88440
H1183       H  0.60123123  0.04225786  0.36028260     0.35650
H1184       H  0.62043011  0.01472701  0.35713871     0.40740
H1185       H  0.67361930  0.09041602  0.26536726     0.40360
H1186       H  0.64524964  0.08832882  0.24705123     0.35250
C1187       C  0.65839153  0.15435621  0.26431427    -0.26480
C1188       C  0.63542456  0.16393183  0.27719325    -0.14550
C1189       C  0.63307541  0.19128571  0.28355441     0.36080
C1190       C  0.65355656  0.20869600  0.27589003    -0.25930
C1191       C  0.67579881  0.19897818  0.26162380    -0.15170
C1192       C  0.67887351  0.17125307  0.25692689     0.37160
N1193       N  0.70222026  0.15938315  0.24458873    -0.89420
H1194       H  0.65993940  0.13355691  0.25874645     0.18280
H1195       H  0.65178432  0.22984332  0.28033886     0.18270
N1196       N  0.61018159  0.20171307  0.29739808    -0.88440
H1197       H  0.71029449  0.14541818  0.25797468     0.35650
H1198       H  0.71745893  0.17311277  0.24126447     0.40740
H1199       H  0.60844474  0.19132246  0.31538161     0.40360
H1200       H  0.59302912  0.19805190  0.28611607     0.35250
C1201       C  0.80924504  0.34834469  0.07161524    -0.26480
C1202       C  0.79167927  0.36653426  0.08397312    -0.14550
C1203       C  0.77510759  0.35791299  0.10505984     0.36080
C1204       C  0.77519032  0.33103148  0.11226812    -0.25930
C1205       C  0.79305311  0.31293710  0.10055396    -0.15170
C1206       C  0.81067538  0.32160058  0.08052691     0.37160
N1207       N  0.82982280  0.30335439  0.06932647    -0.89420
H1208       H  0.82191528  0.35493903  0.05541861     0.18280
H1209       H  0.76246713  0.32449724  0.12848370     0.18270
N1210       N  0.75825744  0.37664234  0.11913437    -0.88440
H1211       H  0.84894635  0.31122484  0.07226822     0.35650
H1212       H  0.82638399  0.30244909  0.04886250     0.40740
H1213       H  0.77079255  0.38933651  0.12980731     0.40360
H1214       H  0.74642157  0.36681794  0.13320990     0.35250
C1215       C  0.67850606  0.21809322  0.08573214    -0.26480
C1216       C  0.65365289  0.21893773  0.09881487    -0.14550
C1217       C  0.65153506  0.20847579  0.12497316     0.36080
C1218       C  0.67454961  0.19906850  0.13774181    -0.25930
C1219       C  0.69989570  0.20325900  0.12654196    -0.15170
C1220       C  0.70185809  0.21054080  0.09949804     0.37160
N1221       N  0.72763446  0.21210126  0.08681708    -0.89420
H1222       H  0.67994397  0.22507492  0.06537516     0.18280
H1223       H  0.67285178  0.19261537  0.15824992     0.18270
N1224       N  0.62673018  0.20996622  0.13962300    -0.88440
H1225       H  0.72555982  0.21821558  0.06702579     0.35650
H1226       H  0.73580109  0.19275628  0.08647816     0.40740
H1227       H  0.62227448  0.23020403  0.14276679     0.40360
H1228       H  0.62866137  0.20115739  0.15841419     0.35250
C1229       C  0.88010060  0.25963466  0.34969605    -0.26480
C1230       C  0.90388629  0.24568701  0.34398411    -0.14550
C1231       C  0.91380546  0.24502638  0.31783269     0.36080
C1232       C  0.89981226  0.25888363  0.29780846    -0.25930
C1233       C  0.87644355  0.27361230  0.30377755    -0.15170
C1234       C  0.86658019  0.27393959  0.33015284     0.37160
N1235       N  0.84396987  0.28994619  0.33817250    -0.89420
H1236       H  0.87314472  0.26129447  0.37005675     0.18280
H1237       H  0.90708338  0.25807774  0.27753230     0.18270
N1238       N  0.93852934  0.23120823  0.31210604    -0.88440
H1239       H  0.82647302  0.28248213  0.32974775     0.35650
H1240       H  0.84687391  0.30963560  0.33175608     0.40740
H1241       H  0.93553875  0.21087872  0.31597139     0.40360
H1242       H  0.94322382  0.23287312  0.29192090     0.35250
C1243       C  0.88786701  0.36138693  0.19179068    -0.26480
C1244       C  0.91222071  0.36191292  0.20573201    -0.14550
C1245       C  0.92988797  0.33969953  0.20405806     0.36080
C1246       C  0.92073135  0.31581828  0.19293758    -0.25930
C1247       C  0.89527037  0.31468659  0.18148710    -0.15170
C1248       C  0.87958093  0.33809638  0.17914467     0.37160
N1249       N  0.85419832  0.33775018  0.16587037    -0.89420
H1250       H  0.87426887  0.37842131  0.19213921     0.18280
H1251       H  0.93296325  0.29780476  0.19415905     0.18270
N1252       N  0.95679137  0.34137890  0.21393932    -0.88440
H1253       H  0.85501097  0.35141178  0.15011119     0.35650
H1254       H  0.83975454  0.34486096  0.17916513     0.40740
H1255       H  0.96672865  0.35573381  0.20252287     0.40360
H1256       H  0.96709342  0.32327547  0.21117673     0.35250
C1257       C  0.67681636  0.41163887  0.03315469    -0.26480
C1258       C  0.67289884  0.38367527  0.03627040    -0.14550
C1259       C  0.68849815  0.37071921  0.05633925     0.36080
C1260       C  0.70832472  0.38474645  0.06993303    -0.25930
C1261       C  0.71620885  0.41063771  0.06235905    -0.15170
C1262       C  0.69926442  0.42475456  0.04443734     0.37160
N1263       N  0.70488666  0.45163490  0.03606575    -0.89420
H1264       H  0.66418404  0.42278519  0.01946212     0.18280
H1265       H  0.72045556  0.37361837  0.08403658     0.18270
N1266       N  0.68698859  0.34267910  0.06200994    -0.88440
H1267       H  0.70931192  0.45109542  0.01576335     0.35650
H1268       H  0.72184148  0.45900098  0.04561417     0.40740
H1269       H  0.69088044  0.33188373  0.04469152     0.40360
H1270       H  0.66818534  0.33819365  0.06984473     0.35250
C1271       C  0.64652279  0.31838010  0.01840741    -0.26480
C1272       C  0.63975722  0.34422831  0.02718486    -0.14550
C1273       C  0.61966016  0.34661076  0.04705962     0.36080
C1274       C  0.60844244  0.32337507  0.05856459    -0.25930
C1275       C  0.61612338  0.29764938  0.04990951    -0.15170
C1276       C  0.63380626  0.29555861  0.02796372     0.37160
N1277       N  0.64039015  0.27034631  0.01566807    -0.89420
H1278       H  0.66268854  0.31545363  0.00455023     0.18280
H1279       H  0.59481506  0.32541568  0.07522036     0.18270
N1280       N  0.61101893  0.37223336  0.05658669    -0.88440
H1281       H  0.63611197  0.27224329  0.99539938     0.35650
H1282       H  0.62778159  0.25518844  0.02237522     0.40740
H1283       H  0.60433420  0.38357036  0.04034509     0.40360
H1284       H  0.62738994  0.38187922  0.06507832     0.35250
C1285       C  0.99613041  0.31512941  0.36757483    -0.26480
C1286       C  0.98459776  0.33997789  0.37415272    -0.14550
C1287       C  0.96376865  0.34033067  0.39330930     0.36080
C1288       C  0.95429468  0.31606068  0.40417475    -0.25930
C1289       C  0.96581416  0.29126880  0.39700670    -0.15170
C1290       C  0.98864884  0.29142678  0.38022232     0.37160
N1291       N  0.00302955  0.26725571  0.37360827    -0.89420
H1292       H  0.01080105  0.31386837  0.35183655     0.18280
H1293       H  0.93646463  0.31643595  0.41649115     0.18270
N1294       N  0.95107126  0.36482896  0.40117675    -0.88440
H1295       H  0.99925523  0.26290293  0.35365906     0.35650
H1296       H  0.99641425  0.25108556  0.38500461     0.40740
H1297       H  0.94255425  0.37377991  0.38435737     0.40360
H1298       H  0.96577900  0.37748387  0.40871666     0.35250
C1299       C  0.97646248  0.36033899  0.31460632    -0.26480
C1300       C  0.97714951  0.37567516  0.33767794    -0.14550
C1301       C  0.96489182  0.40156663  0.33687466     0.36080
C1302       C  0.95115844  0.41027300  0.31347990    -0.25930
C1303       C  0.95221276  0.39524026  0.28974531    -0.15170
C1304       C  0.96815438  0.37135402  0.29044409     0.37160
N1305       N  0.97974753  0.35965267  0.26707106    -0.89420
H1306       H  0.98655722  0.34102317  0.31439221     0.18280
H1307       H  0.94018707  0.42906575  0.31382709     0.18270
N1308       N  0.96602229  0.41946657  0.35908917    -0.88440
H1309       H  0.97072933  0.34119972  0.26363915     0.35650
H1310       H  0.97810098  0.37227812  0.25057627     0.40740
H1311       H  0.97715415  0.41116218  0.37467708     0.40360
H1312       H  0.94644383  0.42227212  0.36605529     0.35250
C1313       C  0.05870320  0.42821820  0.32492454    -0.26480
C1314       C  0.05899882  0.41892446  0.29852446    -0.14550
C1315       C  0.04524383  0.39505384  0.29271637     0.36080
C1316       C  0.03457204  0.37957763  0.31338964    -0.25930
C1317       C  0.03378541  0.38867853  0.33969352    -0.15170
C1318       C  0.04565748  0.41360571  0.34545463     0.37160
N1319       N  0.04532124  0.42348068  0.37220758    -0.89420
H1320       H  0.07012115  0.44585834  0.32983344     0.18280
H1321       H  0.02779680  0.35964222  0.30897171     0.18270
N1322       N  0.04523476  0.38498830  0.26596524    -0.88440
H1323       H  0.05455647  0.44215532  0.37311032     0.35650
H1324       H  0.05694815  0.41041819  0.38379923     0.40740
H1325       H  0.03408533  0.39844449  0.25434909     0.40360
H1326       H  0.03546956  0.36659721  0.26498662     0.35250
C1327       C  0.13505603  0.36339911  0.23421558    -0.26480
C1328       C  0.13744311  0.38169578  0.25494115    -0.14550
C1329       C  0.16274056  0.38803705  0.26532039     0.36080
C1330       C  0.18562859  0.37697054  0.25367300    -0.25930
C1331       C  0.18323734  0.35972940  0.23200483    -0.15170
C1332       C  0.15769413  0.35308039  0.22197486     0.37160
N1333       N  0.15415944  0.33553626  0.19967144    -0.89420
H1334       H  0.11550355  0.35926039  0.22579346     0.18280
H1335       H  0.20510429  0.38058588  0.26248723     0.18270
N1336       N  0.16513821  0.40603716  0.28726872    -0.88440
H1337       H  0.14568093  0.31780771  0.20672671     0.35650
H1338       H  0.17245885  0.33058276  0.19076342     0.40740
H1339       H  0.17749151  0.42182123  0.28151902     0.40360
H1340       H  0.17478148  0.39577290  0.30274416     0.35250
C1341       C  0.05903117  0.33621470  0.41912938    -0.26480
C1342       C  0.07405040  0.31640377  0.40572412    -0.14550
C1343       C  0.07087968  0.31457891  0.37769133     0.36080
C1344       C  0.05601499  0.33407409  0.36380480    -0.25930
C1345       C  0.04079193  0.35367623  0.37702636    -0.15170
C1346       C  0.04178458  0.35413913  0.40509549     0.37160
N1347       N  0.02599505  0.37336646  0.41932495    -0.89420
H1348       H  0.06150460  0.33852132  0.44037458     0.18280
H1349       H  0.05487813  0.33268777  0.34236198     0.18270
N1350       N  0.08320022  0.29344403  0.36255049    -0.88440
H1351       H  0.03897782  0.38509103  0.43057647     0.35650
H1352       H  0.01356676  0.36296323  0.43244314     0.40740
H1353       H  0.09144286  0.27869988  0.37491195     0.40360
H1354       H  0.09873055  0.30172395  0.35133041     0.35250
C1355       C  0.14808930  0.26750213  0.37012770    -0.26480
C1356       C  0.15688247  0.29176729  0.38105217    -0.14550
C1357       C  0.17148858  0.30982830  0.36549979     0.36080
C1358       C  0.17721302  0.30305461  0.33913110    -0.25930
C1359       C  0.16831363  0.27874154  0.32821392    -0.15170
C1360       C  0.15353546  0.26083200  0.34400031     0.37160
N1361       N  0.14291737  0.23630299  0.33395159    -0.89420
H1362       H  0.13594378  0.25394511  0.38182834     0.18280
H1363       H  0.18900321  0.31667690  0.32717837     0.18270
N1364       N  0.18086386  0.33449661  0.37662486    -0.88440
H1365       H  0.15873017  0.22333139  0.32918525     0.35650
H1366       H  0.13164546  0.24051251  0.31689858     0.40740
H1367       H  0.16417152  0.34654234  0.38081925     0.40360
H1368       H  0.19221824  0.34501261  0.36265224     0.35250
C1369       C  0.21057469  0.10637580  0.32152879    -0.26480
C1370       C  0.21381297  0.11905071  0.34618166    -0.14550
C1371       C  0.20735986  0.14672149  0.34840553     0.36080
C1372       C  0.19835201  0.16074002  0.32626275    -0.25930
C1373       C  0.19733835  0.14870943  0.30123977    -0.15170
C1374       C  0.20271765  0.12096864  0.29889934     0.37160
N1375       N  0.20077015  0.10714158  0.27401328    -0.89420
H1376       H  0.21545087  0.08528996  0.31957240     0.18280
H1377       H  0.19507147  0.18214692  0.32819286     0.18270
N1378       N  0.21262429  0.16210358  0.37183529    -0.88440
H1379       H  0.22017604  0.10153110  0.26827596     0.35650
H1380       H  0.19289545  0.11952839  0.25913426     0.40740
H1381       H  0.23250725  0.15901592  0.37779379     0.40360
H1382       H  0.19946225  0.15669883  0.38700062     0.35250
C1383       C  0.36691959  0.13209585  0.23824179    -0.26480
C1384       C  0.36594005  0.10818982  0.22396245    -0.14550
C1385       C  0.34132196  0.09744590  0.21597808     0.36080
C1386       C  0.31781693  0.11206260  0.22105761    -0.25930
C1387       C  0.31907497  0.13618834  0.23500110    -0.15170
C1388       C  0.34367381  0.14575348  0.24474324     0.37160
N1389       N  0.34579605  0.16948699  0.26070740    -0.89420
H1390       H  0.38587644  0.13935455  0.24579808     0.18280
H1391       H  0.29876264  0.10524952  0.21338178     0.18270
N1392       N  0.34046325  0.07194022  0.20296695    -0.88440
H1393       H  0.35540805  0.16404815  0.27841819     0.35650
H1394       H  0.32690019  0.17634263  0.26652087     0.40740
H1395       H  0.35052704  0.07385130  0.18484167     0.40360
H1396       H  0.32065461  0.06692044  0.19852130     0.35250
C1397       C  0.34945422  0.25387277  0.08946859    -0.26480
C1398       C  0.36424298  0.23114771  0.08156048    -0.14550
C1399       C  0.35807325  0.20624164  0.09340906     0.36080
C1400       C  0.34305528  0.20588198  0.11703639    -0.25930
C1401       C  0.33322307  0.22986244  0.12794017    -0.15170
C1402       C  0.33442812  0.25356313  0.11273362     0.37160
N1403       N  0.32142226  0.27774681  0.12134962    -0.89420
H1404       H  0.35208000  0.27305746  0.07985117     0.18280
H1405       H  0.34043439  0.18717879  0.12764679     0.18270
N1406       N  0.36892291  0.18186418  0.08258862    -0.88440
H1407       H  0.30817382  0.28402959  0.10643122     0.35650
H1408       H  0.33603028  0.29246495  0.12353935     0.40740
H1409       H  0.36067807  0.17950195  0.06366259     0.40360
H1410       H  0.36286490  0.16540034  0.09391197     0.35250
C1411       C  0.30548485  0.40612107  0.17564640    -0.26480
C1412       C  0.30351475  0.40275026  0.14810515    -0.14550
C1413       C  0.30802580  0.37707499  0.13697652     0.36080
C1414       C  0.31509900  0.35569064  0.15343684    -0.25930
C1415       C  0.31443953  0.35835481  0.18100383    -0.15170
C1416       C  0.31069287  0.38408208  0.19235404     0.37160
N1417       N  0.31103140  0.38826594  0.22059481    -0.89420
H1418       H  0.30188573  0.42568000  0.18424441     0.18280
H1419       H  0.31725072  0.33594797  0.14477961     0.18270
N1420       N  0.30288453  0.37218833  0.10928973    -0.88440
H1421       H  0.32619096  0.40199119  0.22461769     0.35650
H1422       H  0.31655634  0.37071965  0.23061045     0.40740
H1423       H  0.28245556  0.37577263  0.10597923     0.40360
H1424       H  0.30617053  0.35206742  0.10461251     0.35250
C1425       C  0.42234754  0.96336685  0.32120049    -0.26480
C1426       C  0.41063202  0.95066873  0.29922783    -0.14550
C1427       C  0.38260073  0.95427510  0.29509871     0.36080
C1428       C  0.36692367  0.96738755  0.31423066    -0.25930
C1429       C  0.37852721  0.98099157  0.33561388    -0.15170
C1430       C  0.40683085  0.97904967  0.33900660     0.37160
N1431       N  0.42034061  0.99203781  0.36056061    -0.89420
H1432       H  0.44346420  0.96008413  0.32527256     0.18280
H1433       H  0.34548554  0.96909354  0.31093614     0.18270
N1434       N  0.36913333  0.94346222  0.27228234    -0.88440
H1435       H  0.42918677  0.97710246  0.37233504     0.35650
H1436       H  0.40679363  0.00216445  0.37283052     0.40740
H1437       H  0.38281725  0.93543333  0.25869909     0.40360
H1438       H  0.35983205  0.95945208  0.26234226     0.35250
C1439       C  0.34162059  0.96974187  0.38538681    -0.26480
C1440       C  0.33699207  0.98798189  0.36458326    -0.14550
C1441       C  0.31036153  0.99219377  0.35578679     0.36080
C1442       C  0.28910930  0.97812651  0.36773782    -0.25930
C1443       C  0.29380562  0.95941018  0.38815289    -0.15170
C1444       C  0.32050437  0.95570511  0.39743274     0.37160
N1445       N  0.32708602  0.93700312  0.41827511    -0.89420
H1446       H  0.36198240  0.96611717  0.39213766     0.18280
H1447       H  0.26909537  0.98025818  0.35954733     0.18270
N1448       N  0.30500628  0.00934381  0.33351637    -0.88440
H1449       H  0.33860449  0.92159174  0.40993094     0.35650
H1450       H  0.30996433  0.92833168  0.42641874     0.40740
H1451       H  0.29124142  0.02403496  0.33953276     0.40360
H1452       H  0.29597354  0.99794520  0.31868363     0.35250
C1453       C  0.33368337  0.06909017  0.34518442    -0.26480
C1454       C  0.34387397  0.04767030  0.36044085    -0.14550
C1455       C  0.33449284  0.04543043  0.38701192     0.36080
C1456       C  0.31185610  0.06048806  0.39555185    -0.25930
C1457       C  0.29952338  0.07960911  0.37886981    -0.15170
C1458       C  0.31265715  0.08570121  0.35451090     0.37160
N1459       N  0.30451572  0.10872031  0.33915932    -0.89420
H1460       H  0.34163065  0.07259611  0.32546544     0.18280
H1461       H  0.30346378  0.05652631  0.41500793     0.18270
N1462       N  0.34808873  0.02832466  0.40559748    -0.88440
H1463       H  0.31615999  0.11049330  0.32196689     0.35650
H1464       H  0.30824433  0.12568179  0.35062865     0.40740
H1465       H  0.33393898  0.01554858  0.41406775     0.40360
H1466       H  0.35543777  0.04033024  0.42086510     0.35250
C1467       C  0.41778531  0.06630393  0.30782949    -0.26480
C1468       C  0.41563769  0.05385854  0.28281394    -0.14550
C1469       C  0.39909488  0.03113555  0.28093335     0.36080
C1470       C  0.38012863  0.02661861  0.30067198    -0.25930
C1471       C  0.38235074  0.03780558  0.32610426    -0.15170
C1472       C  0.40244146  0.05748537  0.32993436     0.37160
N1473       N  0.40695882  0.06979567  0.35526730    -0.89420
H1474       H  0.43012482  0.08391413  0.30982393     0.18280
H1475       H  0.36347765  0.01384210  0.29600210     0.18270
N1476       N  0.39810298  0.01513893  0.25724400    -0.88440
H1477       H  0.42683443  0.06568687  0.36064084     0.35650
H1478       H  0.39513255  0.06115553  0.37002637     0.40740
H1479       H  0.41348811  0.02032095  0.24413464     0.40360
H1480       H  0.37982383  0.01891775  0.24769312     0.35250
C1481       C  0.40478946  0.33990706  0.02403987    -0.26480
C1482       C  0.38013632  0.34659747  0.03652785    -0.14550
C1483       C  0.37599350  0.33588332  0.06239202     0.36080
C1484       C  0.39321481  0.31583567  0.07225703    -0.25930
C1485       C  0.41351578  0.30445985  0.05639607    -0.15170
C1486       C  0.42063539  0.31800911  0.03280949     0.37160
N1487       N  0.44274256  0.30923200  0.01663301    -0.89420
H1488       H  0.41020241  0.34967142  0.00558749     0.18280
H1489       H  0.38805752  0.30622764  0.09090964     0.18270
N1490       N  0.35342916  0.34296032  0.07845277    -0.88440
H1491       H  0.43495373  0.30235873  0.99866681     0.35650
H1492       H  0.45288023  0.29314375  0.02551443     0.40740
H1493       H  0.33600516  0.33745000  0.06854996     0.40360
H1494       H  0.35357596  0.36356690  0.08184598     0.35250
C1495       C  0.35065587  0.40662070  0.04140256    -0.26480
C1496       C  0.34014920  0.38178093  0.03410443    -0.14550
C1497       C  0.31242057  0.37709848  0.03861926     0.36080
C1498       C  0.29637344  0.39700655  0.05068268    -0.25930
C1499       C  0.30728952  0.42114540  0.05950560    -0.15170
C1500       C  0.33455906  0.42647031  0.05338460     0.37160
N1501       N  0.34678281  0.45143561  0.06025502    -0.89420
H1502       H  0.37170472  0.41057660  0.03795003     0.18280
H1503       H  0.27587845  0.39233853  0.05604172     0.18270
N1504       N  0.30124499  0.35110831  0.03401899    -0.88440
H1505       H  0.36103798  0.44757069  0.07504374     0.35650
H1506       H  0.33266581  0.46482748  0.06809316     0.40740
H1507       H  0.29940728  0.34839124  0.01366968     0.40360
H1508       H  0.28177763  0.34995768  0.04164537     0.35250
C1509       C  0.07851542  0.37441470  0.69674770    -0.26480
C1510       C  0.06675158  0.39380238  0.71367768    -0.14550
C1511       C  0.04125921  0.40403158  0.70565260     0.36080
C1512       C  0.02848575  0.39331501  0.68278390    -0.25930
C1513       C  0.03842652  0.37026856  0.66932655    -0.15170
C1514       C  0.06508624  0.36267352  0.67538394     0.37160
N1515       N  0.07901866  0.34253075  0.66050350    -0.89420
H1516       H  0.09803558  0.36624125  0.70097874     0.18280
H1517       H  0.00957363  0.40217541  0.67676313     0.18270
N1518       N  0.02688296  0.42403627  0.72054600    -0.88440
H1519       H  0.08508311  0.32732414  0.67357784     0.35650
H1520       H  0.09624649  0.35105720  0.65233316     0.40740
H1521       H  0.03679954  0.42883571  0.73803528     0.40360
H1522       H  0.00867256  0.41572103  0.72651514     0.35250
C1523       C  0.17986044  0.37721117  0.73468372    -0.26480
C1524       C  0.19709335  0.36888579  0.75482279    -0.14550
C1525       C  0.18685681  0.36412950  0.78064321     0.36080
C1526       C  0.15903197  0.36560732  0.78485163    -0.25930
C1527       C  0.14143895  0.37266567  0.76415625    -0.15170
C1528       C  0.15245106  0.37941199  0.73895551     0.37160
N1529       N  0.13652394  0.39078796  0.71808696    -0.89420
H1530       H  0.18772307  0.38126733  0.71498106     0.18280
H1531       H  0.15102259  0.36197616  0.80454791     0.18270
N1532       N  0.20449033  0.35770006  0.80241887    -0.88440
H1533       H  0.14325612  0.41018147  0.71428978     0.35650
H1534       H  0.14019188  0.37964922  0.70089028     0.40740
H1535       H  0.21210850  0.33843304  0.79949009     0.40360
H1536       H  0.19378826  0.35695420  0.82027532     0.35250
C1537       C  0.05267386  0.29259715  0.61536951    -0.26480
C1538       C  0.05967576  0.30323046  0.59052929    -0.14550
C1539       C  0.05108366  0.32971848  0.58433197     0.36080
C1540       C  0.03834700  0.34564864  0.60393780    -0.25930
C1541       C  0.03360499  0.33572196  0.62961667    -0.15170
C1542       C  0.03979723  0.30840681  0.63478404     0.37160
N1543       N  0.03470171  0.29699774  0.66038295    -0.89420
H1544       H  0.05931669  0.27256056  0.62065915     0.18280
H1545       H  0.03269172  0.36613665  0.59938122     0.18270
N1546       N  0.05584056  0.34054461  0.55824577    -0.88440
H1547       H  0.05298208  0.29053511  0.66843143     0.35650
H1548       H  0.02287013  0.28005110  0.65776871     0.40740
H1549       H  0.07647138  0.34297440  0.55578001     0.40360
H1550       H  0.04727291  0.35965429  0.55651214     0.35250
C1551       C  0.17211519  0.31412616  0.59623504    -0.26480
C1552       C  0.15139725  0.29534691  0.59693154    -0.14550
C1553       C  0.14899980  0.27755357  0.61863994     0.36080
C1554       C  0.16823979  0.27776332  0.63842682    -0.25930
C1555       C  0.18948797  0.29574495  0.63758051    -0.15170
C1556       C  0.19135464  0.31460130  0.61676054     0.37160
N1557       N  0.21287579  0.33350270  0.61626164    -0.89420
H1558       H  0.17345243  0.32793658  0.57965128     0.18280
H1559       H  0.16649278  0.26381780  0.65490302     0.18270
N1560       N  0.12707188  0.25906453  0.62031132    -0.88440
H1561       H  0.21123554  0.34592339  0.59956002     0.35650
H1562       H  0.23081216  0.32269700  0.61419254     0.40740
H1563       H  0.10964106  0.27025221  0.62383043     0.40360
H1564       H  0.12931588  0.24622805  0.63663421     0.35250
C1565       C  0.35374392  0.13484687  0.76137380    -0.26480
C1566       C  0.36468297  0.14652448  0.73840480    -0.14550
C1567       C  0.34739399  0.15711065  0.71877576     0.36080
C1568       C  0.31970537  0.15621629  0.72274259    -0.25930
C1569       C  0.30887702  0.14612119  0.74653195    -0.15170
C1570       C  0.32610400  0.13447163  0.76565985     0.37160
N1571       N  0.31620697  0.12282956  0.78989285    -0.89420
H1572       H  0.36681231  0.12530592  0.77587622     0.18280
H1573       H  0.30673399  0.16592398  0.70826386     0.18270
N1574       N  0.35743865  0.17015372  0.69542758    -0.88440
H1575       H  0.32226530  0.10273496  0.79017853     0.35650
H1576       H  0.29525934  0.12264405  0.79009367     0.40740
H1577       H  0.36853968  0.15652366  0.68414362     0.40360
H1578       H  0.37019334  0.18549266  0.70140120     0.35250
C1579       C  0.18816838  0.14865319  0.66783407    -0.26480
C1580       C  0.20841444  0.16713597  0.67282911    -0.14550
C1581       C  0.23477892  0.16267458  0.66392979     0.36080
C1582       C  0.24064281  0.13948400  0.65001653    -0.25930
C1583       C  0.22046164  0.12118183  0.64423895    -0.15170
C1584       C  0.19397738  0.12555886  0.65309619     0.37160
N1585       N  0.17330626  0.10680885  0.64669868    -0.89420
H1586       H  0.16811503  0.15222133  0.67543184     0.18280
H1587       H  0.26075700  0.13637460  0.64232731     0.18270
N1588       N  0.25542458  0.18190434  0.66903559    -0.88440
H1589       H  0.15493343  0.11309643  0.65465850     0.35650
H1590       H  0.17823075  0.08865351  0.65596472     0.40740
H1591       H  0.25046277  0.19925660  0.65838218     0.40360
H1592       H  0.27392392  0.17522508  0.66168671     0.35250
C1593       C  0.32438624  0.41813866  0.95987607    -0.26480
C1594       C  0.30062957  0.40842435  0.94849049    -0.14550
C1595       C  0.29424297  0.38103566  0.95281723     0.36080
C1596       C  0.31224565  0.36418506  0.96671696    -0.25930
C1597       C  0.33603229  0.37393487  0.97778661    -0.15170
C1598       C  0.34226707  0.40115377  0.97376480     0.37160
N1599       N  0.36787183  0.41110666  0.98169783    -0.89420
H1600       H  0.33061494  0.43837945  0.95533496     0.18280
H1601       H  0.30756447  0.34314649  0.96883932     0.18270
N1602       N  0.27071306  0.36908594  0.94158354    -0.88440
H1603       H  0.36466541  0.42828472  0.99308911     0.35650
H1604       H  0.37812962  0.41698660  0.96455092     0.40740
H1605       H  0.25852842  0.38335267  0.93225051     0.40360
H1606       H  0.25934458  0.36149670  0.95731688     0.35250
C1607       C  0.31651654  0.36890643  0.86861036    -0.26480
C1608       C  0.31030186  0.39438349  0.85798717    -0.14550
C1609       C  0.31134274  0.39822941  0.83022409     0.36080
C1610       C  0.31397233  0.37581840  0.81388240    -0.25930
C1611       C  0.31589321  0.34986111  0.82478040    -0.15170
C1612       C  0.31988883  0.34669475  0.85227789     0.37160
N1613       N  0.32457054  0.32067420  0.86379539    -0.89420
H1614       H  0.31624395  0.36555889  0.88987871     0.18280
H1615       H  0.31228472  0.37855122  0.79256980     0.21230
N1616       N  0.30913617  0.42422044  0.81803675    -0.88440
H1617       H  0.32597587  0.32181288  0.88448957     0.35650
H1618       H  0.34330429  0.31403986  0.85705055     0.40740
H1619       H  0.30931565  0.43943460  0.83219672     0.40360
H1620       H  0.29079086  0.42525727  0.80800701     0.35250
C1621       C  0.38036880  0.28428081  0.98144967    -0.26480
C1622       C  0.39578782  0.28742440  0.95823771    -0.14550
C1623       C  0.39677236  0.31340414  0.94655136     0.36080
C1624       C  0.38258937  0.33491172  0.95839624    -0.25930
C1625       C  0.36646833  0.33138275  0.98109750    -0.15170
C1626       C  0.36470602  0.30516125  0.99205010     0.37160
N1627       N  0.34683330  0.29862249  0.01349716    -0.89420
H1628       H  0.37842053  0.26446313  0.99007289     0.18280
H1629       H  0.38409843  0.35468662  0.94962638     0.18270
N1630       N  0.41070420  0.31870891  0.92210909    -0.88440
H1631       H  0.33385023  0.28382693  0.00670894     0.35650
H1632       H  0.33453213  0.31475817  0.01837498     0.40740
H1633       H  0.42000491  0.30164009  0.91454228     0.40360
H1634       H  0.42598080  0.33225239  0.92628498     0.35250
C1635       C  0.33487542  0.24563623  0.86104174    -0.26480
C1636       C  0.31848570  0.22313448  0.85982219    -0.14550
C1637       C  0.32302148  0.20128837  0.87709398     0.36080
C1638       C  0.34372977  0.20299186  0.89597170    -0.25930
C1639       C  0.35964528  0.22594963  0.89724230    -0.15170
C1640       C  0.35565937  0.24721605  0.87894347     0.37160
N1641       N  0.37221614  0.27068912  0.87754912    -0.89420
H1642       H  0.33215615  0.26213730  0.84721798     0.18280
H1643       H  0.34744894  0.18659561  0.90967963     0.18270
N1644       N  0.30663172  0.17785100  0.87558057    -0.88440
H1645       H  0.38055842  0.27152558  0.85850240     0.35650
H1646       H  0.38841600  0.26991080  0.89046761     0.40740
H1647       H  0.28707380  0.18350987  0.88073636     0.40360
H1648       H  0.31285821  0.16362059  0.88962309     0.35250
C1649       C  0.39794257  0.04897383  0.66893615    -0.26480
C1650       C  0.37161471  0.04293162  0.67706290    -0.14550
C1651       C  0.36339937  0.05067419  0.70270161     0.36080
C1652       C  0.38135794  0.06423094  0.71946449    -0.25930
C1653       C  0.40660970  0.07301582  0.71035819    -0.15170
C1654       C  0.41523282  0.06437038  0.68493735     0.37160
N1655       N  0.44084025  0.07188989  0.67431500    -0.89420
H1656       H  0.40493527  0.04215778  0.64972023     0.18280
H1657       H  0.37416037  0.07132228  0.73854082     0.18270
N1658       N  0.33650549  0.04534515  0.71139437    -0.88440
H1659       H  0.45175381  0.05426403  0.67088207     0.35650
H1660       H  0.45179101  0.08266545  0.68828778     0.40740
H1661       H  0.32346090  0.05650631  0.69933849     0.40360
H1662       H  0.33356607  0.05211408  0.73081834     0.35250
C1663       C  0.31245524  0.06623389  0.60942402    -0.26480
C1664       C  0.28645881  0.05615216  0.61354612    -0.14550
C1665       C  0.28336607  0.03534167  0.63255454     0.36080
C1666       C  0.30517477  0.02708579  0.64821735    -0.25930
C1667       C  0.33128143  0.03661768  0.64403729    -0.15170
C1668       C  0.33491982  0.05634619  0.62406419     0.37160
N1669       N  0.36118843  0.06680651  0.61914372    -0.89420
H1670       H  0.31501788  0.08279692  0.59572928     0.18280
H1671       H  0.30147853  0.01301888  0.66414832     0.18270
N1672       N  0.25791727  0.02285726  0.63730955    -0.88440
H1673       H  0.36040806  0.08156186  0.60437075     0.35650
H1674       H  0.37299298  0.05120880  0.61158445     0.40740
H1675       H  0.24352959  0.02891545  0.62340597     0.40360
H1676       H  0.25118472  0.02879244  0.65608016     0.35250
C1677       C  0.19620408  0.75163225  0.61152510    -0.26480
C1678       C  0.17942656  0.73057233  0.60477157    -0.14550
C1679       C  0.19034332  0.70454959  0.60225629     0.36080
C1680       C  0.21751882  0.69999727  0.60815347    -0.25930
C1681       C  0.23419425  0.72125228  0.61529574    -0.15170
C1682       C  0.22333048  0.74741859  0.61593271     0.37160
N1683       N  0.23923891  0.76994466  0.62255701    -0.89420
H1684       H  0.18819321  0.77178357  0.61351933     0.18280
H1685       H  0.22535968  0.67968656  0.60823518     0.18270
N1686       N  0.17409003  0.68281292  0.59361008    -0.88440
H1687       H  0.23053192  0.77963860  0.63883857     0.35650
H1688       H  0.23860973  0.78330923  0.60651189     0.40740
H1689       H  0.17464568  0.66798423  0.60832350     0.40360
H1690       H  0.18269219  0.67485368  0.57638455     0.35250
C1691       C  0.15529200  0.63398274  0.72047016    -0.26480
C1692       C  0.15659328  0.60917596  0.70782462    -0.14550
C1693       C  0.18032526  0.60017496  0.69564001     0.36080
C1694       C  0.20307575  0.61631946  0.69699998    -0.25930
C1695       C  0.20216012  0.64030941  0.71132531    -0.15170
C1696       C  0.17796293  0.64968690  0.72252965     0.37160
N1697       N  0.17660607  0.67499614  0.73607672    -0.89420
H1698       H  0.13681412  0.64036678  0.73002862     0.18280
H1699       H  0.22170856  0.60977682  0.68790107     0.18270
N1700       N  0.18121616  0.57472183  0.68245983    -0.88440
H1701       H  0.15733990  0.67853267  0.74358850     0.35650
H1702       H  0.18019506  0.69003361  0.72204562     0.40740
H1703       H  0.17839308  0.55984575  0.69683117     0.40360
H1704       H  0.20021510  0.57132860  0.67425947     0.35250
C1705       C  0.32612284  0.96046066  0.60363868    -0.26480
C1706       C  0.30575361  0.94552274  0.61591305    -0.14550
C1707       C  0.30242943  0.94818499  0.64380431     0.36080
C1708       C  0.32027863  0.96394823  0.65859263    -0.25930
C1709       C  0.34095477  0.97856054  0.64649586    -0.15170
C1710       C  0.34362223  0.97688018  0.61837597     0.37160
N1711       N  0.36435149  0.99073017  0.60413675    -0.89420
H1712       H  0.32971759  0.95789363  0.58255994     0.18280
H1713       H  0.31728514  0.96538869  0.67979877     0.18270
N1714       N  0.28181926  0.93411017  0.65799447    -0.88440
H1715       H  0.37649335  0.97628701  0.59499150     0.35650
H1716       H  0.37689933  0.00114948  0.61694148     0.40740
H1717       H  0.26927650  0.92385404  0.64500311     0.40360
H1718       H  0.26964957  0.94845733  0.66725666     0.35250
C1719       C  0.30408351  0.82366547  0.61053764    -0.26480
C1720       C  0.31853882  0.84748844  0.60917042    -0.14550
C1721       C  0.34601063  0.84655586  0.61694042     0.36080
C1722       C  0.35643541  0.82307171  0.62918969    -0.25930
C1723       C  0.34101340  0.79967764  0.63093848    -0.15170
C1724       C  0.31579244  0.79986167  0.61888118     0.37160
N1725       N  0.30033192  0.77631834  0.61753722    -0.89420
H1726       H  0.28291453  0.82288491  0.60619965     0.18280
H1727       H  0.37642105  0.82313161  0.63763242     0.18270
N1728       N  0.36317011  0.86908436  0.61253646    -0.88440
H1729       H  0.29405842  0.77368818  0.59790067     0.35650
H1730       H  0.28371713  0.78038859  0.62929283     0.40740
H1731       H  0.36455474  0.87203060  0.59200605     0.40360
H1732       H  0.38260137  0.86493073  0.61930200     0.35250
C1733       C  0.39069868  0.97224143  0.72782553    -0.26480
C1734       C  0.41708584  0.96680313  0.71946345    -0.14550
C1735       C  0.42425309  0.97447826  0.69313549     0.36080
C1736       C  0.40443521  0.98373663  0.67526827    -0.25930
C1737       C  0.37750056  0.98654865  0.68295425    -0.15170
C1738       C  0.37092291  0.98165357  0.70986705     0.37160
N1739       N  0.34395691  0.98530118  0.71897768    -0.89420
H1740       H  0.38470249  0.96684319  0.74781023     0.18280
H1741       H  0.41013458  0.98857686  0.65504904     0.18270
N1742       N  0.45121274  0.97130383  0.68340697    -0.88440
H1743       H  0.34431448  0.99838508  0.73512053     0.35650
H1744       H  0.33715957  0.96685109  0.72601626     0.40740
H1745       H  0.46412972  0.96519406  0.69865061     0.40360
H1746       H  0.45782018  0.99020752  0.67746851     0.35250
C1747       C  0.41778072  0.85031833  0.72507705    -0.26480
C1748       C  0.41304944  0.87748187  0.72979386    -0.14550
C1749       C  0.38781140  0.88602395  0.73991096     0.36080
C1750       C  0.36792615  0.86747424  0.74484124    -0.25930
C1751       C  0.37258488  0.84059376  0.73985208    -0.15170
C1752       C  0.39769258  0.83163250  0.72988030     0.37160
N1753       N  0.40377989  0.80382675  0.72532471    -0.89420
H1754       H  0.43739166  0.84356653  0.71845701     0.18280
H1755       H  0.34850702  0.87423156  0.75205069     0.18270
N1756       N  0.38243731  0.91346364  0.74607137    -0.88440
H1757       H  0.40605834  0.80119862  0.70484989     0.35650
H1758       H  0.38830796  0.79136761  0.73157677     0.40740
H1759       H  0.37753861  0.91483093  0.76622078     0.40360
H1760       H  0.36572657  0.91970274  0.73503787     0.35250
C1761       C  0.32622634  0.62840047  0.96066262    -0.26480
C1762       C  0.32700600  0.65545903  0.96875763    -0.14550
C1763       C  0.30875041  0.67335415  0.95622085     0.36080
C1764       C  0.28846417  0.66346621  0.93970313    -0.25930
C1765       C  0.28608964  0.63607188  0.93284842    -0.15170
C1766       C  0.30667737  0.61868164  0.94248512     0.37160
N1767       N  0.30765085  0.59117770  0.93442426    -0.89420
H1768       H  0.33988831  0.61429921  0.97009387     0.18280
H1769       H  0.27337294  0.67791427  0.93372623     0.18270
N1770       N  0.30804345  0.70147175  0.96195821    -0.88440
H1771       H  0.32377426  0.58115308  0.94342932     0.35650
H1772       H  0.31133033  0.59090989  0.91397397     0.40740
H1773       H  0.32406503  0.70685090  0.97379753     0.40360
H1774       H  0.29053204  0.70560736  0.97267988     0.35250
C1775       C  0.21357751  0.69035762  0.87702133    -0.26480
C1776       C  0.20978667  0.66284556  0.87290755    -0.14550
C1777       C  0.19959643  0.65425642  0.84813040     0.36080
C1778       C  0.19676103  0.67263126  0.82738890    -0.25930
C1779       C  0.20627537  0.69879387  0.83001841    -0.15170
C1780       C  0.21220346  0.70850178  0.85565633     0.37160
N1781       N  0.21892631  0.73613084  0.85945912    -0.89420
H1782       H  0.22015243  0.69727259  0.89631093     0.18280
H1783       H  0.19104467  0.66507608  0.80805978     0.18270
N1784       N  0.19506840  0.62652043  0.84270684    -0.88440
H1785       H  0.22332069  0.73982060  0.87941761     0.35650
H1786       H  0.20188187  0.74756692  0.85482412     0.40740
H1787       H  0.20760858  0.62064597  0.82707708     0.40360
H1788       H  0.17518262  0.62440072  0.83652341     0.35250
C1789       C  0.40162416  0.73140222  0.96696131    -0.26480
C1790       C  0.41586829  0.71625761  0.94844022    -0.14550
C1791       C  0.41123656  0.68816587  0.94772182     0.36080
C1792       C  0.39177472  0.67649313  0.96455879    -0.25930
C1793       C  0.37600371  0.69212546  0.98184471    -0.15170
C1794       C  0.38147980  0.72025398  0.98273738     0.37160
N1795       N  0.36580439  0.73896458  0.99779866    -0.89420
H1796       H  0.40384111  0.75298973  0.96692263     0.18280
H1797       H  0.38901536  0.65501445  0.96412293     0.18270
N1798       N  0.42541058  0.67111089  0.92946869    -0.88440
H1799       H  0.37540280  0.74225627  0.01589406     0.35650
H1800       H  0.34636223  0.73230143  0.00074450     0.40740
H1801       H  0.43980110  0.68183276  0.91885272     0.40360
H1802       H  0.41150254  0.66401520  0.91570717     0.35250
C1803       C  0.36806674  0.77932789  0.86889093    -0.26480
C1804       C  0.37851292  0.75309005  0.86941236    -0.14550
C1805       C  0.36350620  0.73176129  0.85917353     0.36080
C1806       C  0.33831059  0.73721089  0.84837616    -0.25930
C1807       C  0.32885755  0.76361761  0.84626016    -0.15170
C1808       C  0.34346484  0.78486249  0.85683831     0.37160
N1809       N  0.33361476  0.81189178  0.85439888    -0.89420
H1810       H  0.37923665  0.79555057  0.87769021     0.18280
H1811       H  0.32715622  0.72112898  0.83926436     0.18270
N1812       N  0.37432749  0.70496610  0.85891443    -0.88440
H1813       H  0.34703914  0.82526183  0.86302467     0.35650
H1814       H  0.31579526  0.81325118  0.86529235     0.40740
H1815       H  0.39120728  0.70496264  0.84657779     0.40360
H1816       H  0.36065588  0.69169252  0.85052994     0.35250
C1817       C  0.65540418  0.16992196  0.70825794    -0.26480
C1818       C  0.63982887  0.15343515  0.72454636    -0.14550
C1819       C  0.65167980  0.14131994  0.74726451     0.36080
C1820       C  0.67816563  0.14645682  0.75355572    -0.25930
C1821       C  0.69365801  0.16327507  0.73783275    -0.15170
C1822       C  0.68222749  0.17535837  0.71475913     0.37160
N1823       N  0.69637670  0.19409606  0.69828879    -0.89420
H1824       H  0.64658854  0.17885453  0.69061232     0.18280
H1825       H  0.68672572  0.13712827  0.77116006     0.18270
N1826       N  0.63714531  0.12333335  0.76402846    -0.88440
H1827       H  0.69918480  0.18523665  0.67970360     0.35650
H1828       H  0.71526023  0.19862017  0.70576909     0.40740
H1829       H  0.63713096  0.13098681  0.78332037     0.40360
H1830       H  0.64742003  0.10501998  0.76464328     0.35250
C1831       C  0.78537059  0.17478979  0.67002206    -0.26480
C1832       C  0.80870486  0.16280687  0.68031036    -0.14550
C1833       C  0.81843841  0.13835847  0.67021072     0.36080
C1834       C  0.80375627  0.12578573  0.65043156    -0.25930
C1835       C  0.77986217  0.13727661  0.64100760    -0.15170
C1836       C  0.77070083  0.16211311  0.65030442     0.37160
N1837       N  0.74670157  0.17418975  0.63962117    -0.89420
H1838       H  0.77787128  0.19337073  0.67844229     0.18280
H1839       H  0.81099813  0.10700508  0.64227137     0.18270
N1840       N  0.84236465  0.12546484  0.68008119    -0.88440
H1841       H  0.74291590  0.19267834  0.64861020     0.35650
H1842       H  0.73064240  0.16181579  0.64457517     0.40740
H1843       H  0.85176173  0.13708361  0.69446981     0.40360
H1844       H  0.85587156  0.12399525  0.66424188     0.35250
C1845       C  0.95204509  0.33531191  0.59131341    -0.26480
C1846       C  0.94577041  0.30828096  0.59591573    -0.14550
C1847       C  0.95781103  0.29525565  0.61806207     0.36080
C1848       C  0.97270510  0.30990045  0.63647252    -0.25930
C1849       C  0.97730205  0.33725612  0.63285370    -0.15170
C1850       C  0.96800255  0.34971764  0.60937566     0.37160
N1851       N  0.97370562  0.37731818  0.60444051    -0.89420
H1852       H  0.94260032  0.34590079  0.57492451     0.18280
H1853       H  0.97994668  0.30001689  0.65427456     0.18270
N1854       N  0.95309569  0.26759934  0.62367869    -0.88440
H1855       H  0.95546616  0.38766766  0.60265924     0.35650
H1856       H  0.98366357  0.37863035  0.58620466     0.40740
H1857       H  0.95838124  0.25647274  0.60689547     0.40360
H1858       H  0.93270049  0.26515139  0.62737033     0.35250
C1859       C  0.85927907  0.30529548  0.65047520    -0.26480
C1860       C  0.86692470  0.28408395  0.63374242    -0.14550
C1861       C  0.87422768  0.25918774  0.64522265     0.36080
C1862       C  0.87543293  0.25669224  0.67254624    -0.25930
C1863       C  0.86735927  0.27747646  0.68954162    -0.15170
C1864       C  0.85869610  0.30221708  0.67822912     0.37160
N1865       N  0.84842180  0.32425059  0.69358198    -0.89420
H1866       H  0.85422022  0.32460676  0.64184250     0.18280
H1867       H  0.88167871  0.23745733  0.68063959     0.18270
N1868       N  0.88099804  0.23593483  0.62988798    -0.88440
H1869       H  0.86182447  0.34010383  0.69155489     0.35650
H1870       H  0.84710909  0.31987325  0.71373225     0.40740
H1871       H  0.89709860  0.24002061  0.61735221     0.40360
H1872       H  0.86436328  0.23042341  0.61862926     0.35250
C1873       C  0.97299142  0.36925715  0.72507720    -0.26480
C1874       C  0.95040228  0.38616020  0.72176519    -0.14550
C1875       C  0.94095868  0.39047589  0.69537911     0.36080
C1876       C  0.95552389  0.37960191  0.67370058    -0.25930
C1877       C  0.97796267  0.36253805  0.67733560    -0.15170
C1878       C  0.98551941  0.35618747  0.70383393     0.37160
N1879       N  0.00513484  0.33596743  0.71030357    -0.89420
H1880       H  0.98055661  0.36506503  0.74486345     0.18280
H1881       H  0.94869966  0.38404728  0.65374495     0.18270
N1882       N  0.91634691  0.40459147  0.68961774    -0.88440
H1883       H  0.02195195  0.34534504  0.71827935     0.35650
H1884       H  0.01108939  0.32526427  0.69365109     0.40740
H1885       H  0.90522866  0.40793243  0.70681694     0.40360
H1886       H  0.90439493  0.39186610  0.67830230     0.35250
C1887       C  0.89301446  0.36667058  0.82540005    -0.26480
C1888       C  0.91814779  0.36408097  0.81295984    -0.14550
C1889       C  0.93221391  0.33955972  0.81526353     0.36080
C1890       C  0.91880567  0.31697584  0.82491895    -0.25930
C1891       C  0.89189263  0.31889143  0.83284914    -0.15170
C1892       C  0.87982113  0.34448380  0.83563767     0.37160
N1893       N  0.85273463  0.34840917  0.84487328    -0.89420
H1894       H  0.88179075  0.38530475  0.82441983     0.18280
H1895       H  0.92836302  0.29747481  0.82326491     0.18270
N1896       N  0.95938839  0.33715112  0.80625550    -0.88440
H1897       H  0.85345450  0.36134438  0.86113442     0.35650
H1898       H  0.84445833  0.33076638  0.85203681     0.40740
H1899       H  0.97109963  0.33061090  0.82227975     0.40360
H1900       H  0.96022042  0.32233816  0.79164760     0.35250
C1901       C  0.61691025  0.35094206  0.96535538    -0.26480
C1902       C  0.64487367  0.35230335  0.96978224    -0.14550
C1903       C  0.66135616  0.33341885  0.95652488     0.36080
C1904       C  0.64990810  0.31343997  0.94094696    -0.25930
C1905       C  0.62235948  0.31324603  0.93417274    -0.15170
C1906       C  0.60563404  0.33270071  0.94686353     0.37160
N1907       N  0.57767946  0.33580241  0.94066497    -0.89420
H1908       H  0.60377765  0.36496838  0.97546651     0.18280
H1909       H  0.66340751  0.29838707  0.93296765     0.18270
N1910       N  0.69001896  0.33347801  0.95885265    -0.88440
H1911       H  0.56671424  0.32880712  0.95693740     0.35650
H1912       H  0.57225347  0.32472421  0.92406522     0.40740
H1913       H  0.69549906  0.33315199  0.97887312     0.40360
H1914       H  0.69718710  0.35094574  0.95006691     0.35250
C1915       C  0.67513475  0.24825831  0.88614454    -0.26480
C1916       C  0.65675865  0.25501832  0.86601073    -0.14550
C1917       C  0.65945126  0.24315869  0.84067989     0.36080
C1918       C  0.67967265  0.22400202  0.83661515    -0.25930
C1919       C  0.69732545  0.21652758  0.85719104    -0.15170
C1920       C  0.69505967  0.22899117  0.88223783     0.37160
N1921       N  0.71136958  0.22152557  0.90468210    -0.89420
H1922       H  0.67269259  0.25642613  0.90592820     0.18280
H1923       H  0.68200431  0.21538436  0.81700185     0.18270
N1924       N  0.64232696  0.25027696  0.81873032    -0.88440
H1925       H  0.72452861  0.23723406  0.90842347     0.35650
H1926       H  0.72272787  0.20425540  0.90121770     0.40740
H1927       H  0.62922811  0.26592426  0.82364060     0.40360
H1928       H  0.63069202  0.23360419  0.81418212     0.35250
C1929       C  0.70263067  0.39299562  0.98295994    -0.26480
C1930       C  0.67499895  0.39309759  0.97712775    -0.14550
C1931       C  0.66544340  0.41160763  0.95776142     0.36080
C1932       C  0.68380001  0.42651221  0.94255665    -0.25930
C1933       C  0.71159250  0.42424685  0.94670350    -0.15170
C1934       C  0.72067172  0.40915966  0.96892778     0.37160
N1935       N  0.74868394  0.40717008  0.97548510    -0.89420
H1936       H  0.71058858  0.37919887  0.99769210     0.18280
H1937       H  0.67643597  0.43784366  0.92561726     0.18270
N1938       N  0.63737991  0.41514359  0.95229924    -0.88440
H1939       H  0.75527176  0.38785861  0.97065657     0.35650
H1940       H  0.75992435  0.42059966  0.96417771     0.40740
H1941       H  0.62563637  0.40681976  0.96730421     0.40360
H1942       H  0.63317473  0.40522781  0.93455270     0.35250
C1943       C  0.74350126  0.31887096  0.87807270    -0.26480
C1944       C  0.76887956  0.30936484  0.88591584    -0.14550
C1945       C  0.78765799  0.32698217  0.89683538     0.36080
C1946       C  0.78157218  0.35420272  0.89803512    -0.25930
C1947       C  0.75690010  0.36392150  0.88866441    -0.15170
C1948       C  0.73736128  0.34619627  0.87918808     0.37160
N1949       N  0.71170204  0.35615249  0.87034033    -0.89420
H1950       H  0.72921082  0.30530899  0.86925003     0.18280
H1951       H  0.79602729  0.36778576  0.90656958     0.18270
N1952       N  0.81296408  0.31721241  0.90648258    -0.88440
H1953       H  0.69960838  0.34042068  0.86402015     0.35650
H1954       H  0.71501066  0.36835251  0.85375535     0.40740
H1955       H  0.81439408  0.32216722  0.92659050     0.40360
H1956       H  0.82818332  0.32727250  0.89638939     0.35250
C1957       C  0.04860968  0.64594725  0.68375010    -0.26480
C1958       C  0.03766867  0.63458514  0.66077396    -0.14550
C1959       C  0.03829874  0.60632880  0.65816860     0.36080
C1960       C  0.05072827  0.59054646  0.67811307    -0.25930
C1961       C  0.06213716  0.60212617  0.70090177    -0.15170
C1962       C  0.05964380  0.63021096  0.70415196     0.37160
N1963       N  0.06998695  0.64362106  0.72715339    -0.89420
H1964       H  0.04834941  0.66752220  0.68595943     0.18280
H1965       H  0.05341488  0.56927868  0.67474904     0.18270
N1966       N  0.02762998  0.59311385  0.63522594    -0.88440
H1967       H  0.08655847  0.65479938  0.72113848     0.35650
H1968       H  0.07660920  0.62999579  0.74156022     0.40740
H1969       H  0.01940191  0.60681767  0.62173553     0.40360
H1970       H  0.04363811  0.58370391  0.62547639     0.35250
C1971       C  0.05604349  0.70768394  0.59400454    -0.26480
C1972       C  0.08355414  0.70351697  0.59891576    -0.14550
C1973       C  0.09063741  0.67824266  0.61022047     0.36080
C1974       C  0.07126864  0.66318569  0.62378450    -0.25930
C1975       C  0.04365563  0.66946099  0.62263275    -0.15170
C1976       C  0.03657697  0.68921165  0.60316936     0.37160
N1977       N  0.01148786  0.68830053  0.58948287    -0.89420
H1978       H  0.04948364  0.72442657  0.58190399     0.18280
H1979       H  0.07817556  0.64556243  0.63436415     0.18270
N1980       N  0.11702864  0.66696456  0.60663432    -0.88440
H1981       H  0.01540416  0.68317662  0.56973004     0.35650
H1982       H  0.00321700  0.70760484  0.58920308     0.40740
H1983       H  0.11976240  0.66394093  0.58626715     0.40360
H1984       H  0.11880153  0.64818583  0.61574464     0.35250
C1985       C  0.67008763  0.06417596  0.62031361    -0.26480
C1986       C  0.67872017  0.04194309  0.63541392    -0.14550
C1987       C  0.70640534  0.03528594  0.63549144     0.36080
C1988       C  0.72436035  0.05033454  0.61994438    -0.25930
C1989       C  0.71584863  0.07290401  0.60529650    -0.15170
C1990       C  0.68815119  0.07962444  0.60527116     0.37160
N1991       N  0.67779757  0.10266155  0.59131382    -0.89420
H1992       H  0.64899755  0.06964110  0.62024459     0.18280
H1993       H  0.74564258  0.04580035  0.62101399     0.18270
N1994       N  0.71637079  0.01370814  0.65182016    -0.88440
H1995       H  0.66409706  0.09582856  0.57721636     0.35650
H1996       H  0.69283654  0.11235012  0.58065248     0.40740
H1997       H  0.71365854  0.01911142  0.67165529     0.40360
H1998       H  0.73700228  0.01097574  0.64906856     0.35250
C1999       C  0.61357575  0.04300395  0.66950226    -0.26480
C2000       C  0.64180123  0.04168246  0.67127515    -0.14550
C2001       C  0.65428313  0.05566881  0.69209723     0.36080
C2002       C  0.63877296  0.07017031  0.71048022    -0.25930
C2003       C  0.61084811  0.07360325  0.70743517    -0.15170
C2004       C  0.59808725  0.05907137  0.68694005     0.37160
N2005       N  0.56968152  0.06112775  0.68251394    -0.89420
H2006       H  0.60357245  0.03263097  0.65352362     0.18280
H2007       H  0.64922534  0.08189187  0.72514968     0.18270
N2008       N  0.68292932  0.05645089  0.69397318    -0.88440
H2009       H  0.56672813  0.07078539  0.66426948     0.35650
H2010       H  0.56045137  0.07290855  0.69704489     0.40740
H2011       H  0.68851180  0.04983580  0.71293067     0.40360
H2012       H  0.68883646  0.07639690  0.69209665     0.35250
C2013       C  0.65997456  0.69065033  0.04897284    -0.26480
C2014       C  0.64513733  0.68001874  0.02782633    -0.14550
C2015       C  0.61809687  0.68915976  0.02529742     0.36080
C2016       C  0.60921543  0.71243107  0.03896514    -0.25930
C2017       C  0.62566326  0.72502982  0.05771880    -0.15170
C2018       C  0.64989104  0.71149487  0.06480772     0.37160
N2019       N  0.66416466  0.71831007  0.08855345    -0.89420
H2020       H  0.67980831  0.68288362  0.05348856     0.18280
H2021       H  0.58946314  0.72058163  0.03476290     0.18270
N2022       N  0.59912609  0.67424889  0.01020445    -0.88440
H2023       H  0.68384384  0.72321551  0.08337489     0.35650
H2024       H  0.66502239  0.70134953  0.10077246     0.40740
H2025       H  0.58945148  0.68749124  0.99714729     0.40360
H2026       H  0.58452681  0.66725540  0.02335818     0.35250
C2027       C  0.70739677  0.64452996  0.01246575    -0.26480
C2028       C  0.68088705  0.64221094  0.02184501    -0.14550
C2029       C  0.67621035  0.62441154  0.04346032     0.36080
C2030       C  0.69810431  0.61141885  0.05611571    -0.25930
C2031       C  0.72462422  0.61467507  0.04716734    -0.15170
C2032       C  0.72869524  0.62979674  0.02359986     0.37160
N2033       N  0.75478628  0.63219377  0.01167188    -0.89420
H2034       H  0.71172714  0.65806560  0.99618288     0.18280
H2035       H  0.69452567  0.60025727  0.07425830     0.18270
N2036       N  0.64973179  0.61947116  0.05352737    -0.88440
H2037       H  0.76113833  0.65192046  0.01407882     0.35650
H2038       H  0.76878965  0.61966636  0.02105008     0.40740
H2039       H  0.63496316  0.62844316  0.04172008     0.40360
H2040       H  0.64841953  0.62804348  0.07240305     0.35250
C2041       C  0.63182829  0.96404541  0.71189407    -0.26480
C2042       C  0.60645865  0.95453343  0.70465520    -0.14550
C2043       C  0.59641816  0.96093365  0.67902852     0.36080
C2044       C  0.61220925  0.97595766  0.66125119    -0.25930
C2045       C  0.63803845  0.98444820  0.66818773    -0.15170
C2046       C  0.64788943  0.97839219  0.69389551     0.37160
N2047       N  0.67508680  0.98462298  0.70077705    -0.89420
H2048       H  0.64015001  0.95808645  0.73094344     0.18280
H2049       H  0.60454291  0.98041635  0.64156966     0.18270
N2050       N  0.57076461  0.95170997  0.67006754    -0.88440
H2051       H  0.67987596  0.97709773  0.71961582     0.35650
H2052       H  0.67641934  0.00532272  0.70215848     0.40740
H2053       H  0.56055606  0.94161446  0.68513901     0.40360
H2054       H  0.57418676  0.93798481  0.65478252     0.35250
C2055       C  0.61737153  0.83592151  0.72651096    -0.26480
C2056       C  0.62532622  0.86252589  0.73025340    -0.14550
C2057       C  0.65182908  0.86823267  0.73744335     0.36080
C2058       C  0.67024080  0.84746390  0.74000365    -0.25930
C2059       C  0.66276842  0.82084547  0.73580540    -0.15170
C2060       C  0.63595070  0.81478969  0.72903626     0.37160
N2061       N  0.62710491  0.78805657  0.72365662    -0.89420
H2062       H  0.59669959  0.83163715  0.72155954     0.18280
H2063       H  0.69064793  0.85222627  0.74566009     0.18270
N2064       N  0.65985714  0.89509977  0.74312786    -0.88440
H2065       H  0.61329432  0.78286622  0.73839769     0.35650
H2066       H  0.64282901  0.77418788  0.72467944     0.40740
H2067       H  0.67565207  0.90001517  0.73039035     0.40360
H2068       H  0.66701339  0.89564018  0.76264322     0.35250
C2069       C  0.70330131  0.97747456  0.59137665    -0.26480
C2070       C  0.71612088  0.95545783  0.60346528    -0.14550
C2071       C  0.70323484  0.94356353  0.62561924     0.36080
C2072       C  0.68233995  0.95720526  0.63870607    -0.25930
C2073       C  0.67229942  0.98185402  0.62932321    -0.15170
C2074       C  0.68051212  0.98973816  0.60335694     0.37160
N2075       N  0.66591663  0.00994591  0.58906068    -0.89420
H2076       H  0.71171250  0.98605408  0.57345639     0.18280
H2077       H  0.67499363  0.94893111  0.65715926     0.18270
N2078       N  0.71285395  0.91845844  0.63598490    -0.88440
H2079       H  0.65812493  0.00108301  0.57198164     0.35650
H2080       H  0.67950162  0.02444022  0.58270854     0.40740
H2081       H  0.70888097  0.90396110  0.62163497     0.40360
H2082       H  0.70218277  0.91289024  0.65298734     0.35250
C2083       C  0.76605284  0.89183301  0.63153555    -0.26480
C2084       C  0.78243769  0.91268123  0.64054889    -0.14550
C2085       C  0.79524809  0.91053708  0.66513830     0.36080
C2086       C  0.79130039  0.88732502  0.68030228    -0.25930
C2087       C  0.77508494  0.86630425  0.67095912    -0.15170
C2088       C  0.76246535  0.86853433  0.64607461     0.37160
N2089       N  0.74718221  0.84746338  0.63416694    -0.89420
H2090       H  0.75576042  0.89381276  0.61278056     0.18280
H2091       H  0.80096008  0.88557319  0.69953483     0.18270
N2092       N  0.81180842  0.93184059  0.67461311    -0.88440
H2093       H  0.72699359  0.85331480  0.63436131     0.35650
H2094       H  0.74896506  0.82937918  0.64440233     0.40740
H2095       H  0.82817769  0.93339522  0.66172419     0.40360
H2096       H  0.81961657  0.92706507  0.69333837     0.35250
C2097       C  0.94666325  0.70649142  0.61247940    -0.26480
C2098       C  0.95634886  0.73137062  0.62080167    -0.14550
C2099       C  0.98021931  0.73202393  0.63622038     0.36080
C2100       C  0.99279057  0.70794742  0.64394493    -0.25930
C2101       C  0.98308927  0.68301398  0.63571379    -0.15170
C2102       C  0.95978786  0.68243382  0.61972996     0.37160
N2103       N  0.94967340  0.65751976  0.61031892    -0.89420
H2104       H  0.92826895  0.70565457  0.60105670     0.18280
H2105       H  0.01064886  0.70873174  0.65618468     0.18270
N2106       N  0.99217279  0.75670116  0.64459716    -0.88440
H2107       H  0.94942315  0.65818065  0.58955623     0.35650
H2108       H  0.92989752  0.65566554  0.61695363     0.40740
H2109       H  0.98222106  0.77329831  0.63652492     0.40360
H2110       H  0.01158200  0.75720184  0.63672848     0.35250
C2111       C  0.91468393  0.80238363  0.68910213    -0.26480
C2112       C  0.89941053  0.79943943  0.66586315    -0.14550
C2113       C  0.87210466  0.80700791  0.66593119     0.36080
C2114       C  0.86126357  0.81908331  0.68850027    -0.25930
C2115       C  0.87630151  0.82210513  0.71182273    -0.15170
C2116       C  0.90343236  0.81343624  0.71218932     0.37160
N2117       N  0.92051935  0.81664367  0.73492379    -0.89420
H2118       H  0.93570135  0.79663648  0.68914810     0.18280
H2119       H  0.84050748  0.82523591  0.68811024     0.18270
N2120       N  0.85530685  0.80186048  0.64329078    -0.88440
H2121       H  0.92517414  0.79756284  0.74227225     0.35650
H2122       H  0.91106074  0.82723481  0.75013490     0.40740
H2123       H  0.85428390  0.78110326  0.64099416     0.40360
H2124       H  0.83568916  0.80864330  0.64663658     0.35250
C2125       C  0.97325767  0.62732348  0.70969798    -0.26480
C2126       C  0.95338132  0.60934973  0.70133478    -0.14550
C2127       C  0.95126013  0.60406680  0.67379314     0.36080
C2128       C  0.96679938  0.61897050  0.65561014    -0.25930
C2129       C  0.98221029  0.64081780  0.66412052    -0.15170
C2130       C  0.98475539  0.64531405  0.69163756     0.37160
N2131       N  0.99777343  0.66895339  0.70117887    -0.89420
H2132       H  0.97507352  0.63144091  0.73076336     0.18280
H2133       H  0.96565159  0.61435851  0.63465515     0.18270
N2134       N  0.93259419  0.58495575  0.66359756    -0.88440
H2135       H  0.99854684  0.66899411  0.72193614     0.35650
H2136       H  0.98588893  0.68538793  0.69565268     0.40740
H2137       H  0.92275871  0.57514940  0.67909471     0.40360
H2138       H  0.94369434  0.57026155  0.65360412     0.35250
C2139       C  0.89954764  0.68768413  0.74068104    -0.26480
C2140       C  0.90146033  0.66578006  0.75819414    -0.14550
C2141       C  0.90497603  0.67064745  0.78559398     0.36080
C2142       C  0.90293537  0.69678520  0.79517432    -0.25930
C2143       C  0.89847038  0.71830712  0.77779768    -0.15170
C2144       C  0.89920065  0.71380506  0.75007117     0.37160
N2145       N  0.89825228  0.73512752  0.73091825    -0.89420
H2146       H  0.89769067  0.68462863  0.71946945     0.18280
H2147       H  0.90275362  0.70006566  0.81645694     0.18270
N2148       N  0.91051286  0.64922563  0.80381484    -0.88440
H2149       H  0.91398099  0.74821146  0.73484638     0.35650
H2150       H  0.88009762  0.74550532  0.73238834     0.40740
H2151       H  0.89541268  0.64911710  0.81824190     0.40360
H2152       H  0.92871677  0.65314803  0.81327106     0.35250
C2153       C  0.70488030  0.63700207  0.92761580    -0.26480
C2154       C  0.71399495  0.61249472  0.93813225    -0.14550
C2155       C  0.69893073  0.60067352  0.95883494     0.36080
C2156       C  0.67722052  0.61510550  0.97015062    -0.25930
C2157       C  0.67222402  0.64229341  0.96352318    -0.15170
C2158       C  0.68532988  0.65246699  0.94064506     0.37160
N2159       N  0.68064183  0.67926860  0.93152697    -0.89420
H2160       H  0.71560661  0.64591951  0.91111546     0.18280
H2161       H  0.66618444  0.60597216  0.98629427     0.18270
N2162       N  0.70618486  0.57517460  0.97013711    -0.88440
H2163       H  0.67425165  0.67841382  0.91177479     0.35650
H2164       H  0.69880218  0.68956709  0.93207137     0.40740
H2165       H  0.72245868  0.56666094  0.96008721     0.40360
H2166       H  0.69002610  0.56232789  0.96723731     0.35250
C2167       C  0.77224467  0.67449822  0.91278818    -0.26480
C2168       C  0.79306535  0.65587136  0.91781895    -0.14550
C2169       C  0.81839407  0.66061965  0.90621916     0.36080
C2170       C  0.82014752  0.67864187  0.88479979    -0.25930
C2171       C  0.79721586  0.69248950  0.87580046    -0.15170
C2172       C  0.77381971  0.69221198  0.89150605     0.37160
N2173       N  0.75099376  0.70889545  0.88583996    -0.89420
H2174       H  0.75311812  0.67313963  0.92277756     0.18280
H2175       H  0.83886309  0.68035296  0.87399227     0.18270
N2176       N  0.84153988  0.64559246  0.91483627    -0.88440
H2177       H  0.74283019  0.70315346  0.86770887     0.35650
H2178       H  0.75729771  0.72875393  0.88449458     0.40740
H2179       H  0.84518159  0.65070611  0.93461765     0.40360
H2180       H  0.85848489  0.65122199  0.90399215     0.35250
C2181       C  0.62958069  0.72718475  0.95249253    -0.26480
C2182       C  0.60899038  0.71783869  0.93601355    -0.14550
C2183       C  0.60143304  0.69060687  0.93828620     0.36080
C2184       C  0.61696385  0.67286815  0.95366366    -0.25930
C2185       C  0.63880351  0.68169414  0.96872132    -0.15170
C2186       C  0.64482496  0.70954742  0.96857359     0.37160
N2187       N  0.66753618  0.72032857  0.98240508    -0.89420
H2188       H  0.63597302  0.74777577  0.95053752     0.18280
H2189       H  0.61202851  0.65178290  0.95371568     0.18270
N2190       N  0.57939961  0.67990865  0.92340106    -0.88440
H2191       H  0.68030497  0.72871392  0.96820996     0.35650
H2192       H  0.67881363  0.70540909  0.99180368     0.40740
H2193       H  0.56884789  0.69515264  0.91357034     0.40360
H2194       H  0.56588907  0.67179249  0.93705986     0.35250
C2195       C  0.63192097  0.72081414  0.81780539    -0.26480
C2196       C  0.63724605  0.72404863  0.84499605    -0.14550
C2197       C  0.66373767  0.72042279  0.85450761     0.36080
C2198       C  0.68388468  0.71243146  0.83702855    -0.25930
C2199       C  0.67902708  0.71000519  0.80979801    -0.15170
C2200       C  0.65275445  0.71412126  0.79995662     0.37160
N2201       N  0.64750035  0.71198609  0.77198530    -0.89420
H2202       H  0.61169386  0.72397906  0.81050373     0.18280
H2203       H  0.70411831  0.71038831  0.84447829     0.18270
N2204       N  0.67044161  0.72634876  0.88168089    -0.88440
H2205       H  0.62723652  0.71582945  0.76801579     0.35650
H2206       H  0.65126786  0.69213794  0.76651582     0.40740
H2207       H  0.66726574  0.74685268  0.88455805     0.40360
H2208       H  0.69077277  0.72265271  0.88543138     0.35250
C2209       C  0.55540908  0.89695062  0.82813682    -0.26480
C2210       C  0.53495896  0.87808815  0.82458169    -0.14550
C2211       C  0.52424542  0.87469761  0.79874945     0.36080
C2212       C  0.53368087  0.89039716  0.77755961    -0.25930
C2213       C  0.55575680  0.90732163  0.78059446    -0.15170
C2214       C  0.56608578  0.91137763  0.80651988     0.37160
N2215       N  0.58862273  0.92842395  0.81131750    -0.89420
H2216       H  0.56384995  0.89971063  0.84776044     0.18280
H2217       H  0.52637283  0.88647725  0.75767428     0.18270
N2218       N  0.50519316  0.85395001  0.79366823    -0.88440
H2219       H  0.58227689  0.94339986  0.82440583     0.35650
H2220       H  0.59449101  0.93824956  0.79395591     0.40740
H2221       H  0.51545499  0.83575100  0.79567957     0.40360
H2222       H  0.49856911  0.85476062  0.77398228     0.35250
C2223       C  0.56927542  0.83478114  0.84614042    -0.26480
C2224       C  0.54639947  0.84255410  0.86073380    -0.14550
C2225       C  0.54416574  0.83193554  0.88688521     0.36080
C2226       C  0.55926270  0.80885148  0.89411647    -0.25930
C2227       C  0.58004351  0.79897739  0.87775647    -0.15170
C2228       C  0.58723059  0.81517990  0.85554302     0.37160
N2229       N  0.61326939  0.81395362  0.84327993    -0.89420
H2230       H  0.57384926  0.84420765  0.82731086     0.18280
H2231       H  0.55446427  0.79864041  0.91246755     0.18270
N2232       N  0.52687794  0.84457973  0.90600158    -0.88440
H2233       H  0.61127614  0.80649003  0.82401173     0.35650
H2234       H  0.62669345  0.80201646  0.85409612     0.40740
H2235       H  0.53414655  0.86384724  0.90925221     0.40360
H2236       H  0.52777271  0.83449196  0.92422438     0.35250
C2237       C  0.46943378  0.83884216  0.88948201    -0.26480
C2238       C  0.48670682  0.83562044  0.86753324    -0.14550
C2239       C  0.49256502  0.80917471  0.85903906     0.36080
C2240       C  0.48197926  0.78704123  0.87271232    -0.25930
C2241       C  0.46430910  0.79020135  0.89420119    -0.15170
C2242       C  0.45819641  0.81649052  0.90278948     0.37160
N2243       N  0.43915917  0.82037804  0.92388580    -0.89420
H2244       H  0.46447983  0.85890818  0.89605219     0.18280
H2245       H  0.48564836  0.76715715  0.86487591     0.18270
N2246       N  0.50818507  0.80455539  0.83562052    -0.88440
H2247       H  0.43636081  0.84078479  0.92761997     0.35650
H2248       H  0.44744545  0.81198836  0.94112125     0.40740
H2249       H  0.49637228  0.79409854  0.82208003     0.40360
H2250       H  0.52451565  0.79230001  0.84073856     0.35250
C2251       C  0.45483050  0.87098488  0.82953708    -0.26480
C2252       C  0.47868336  0.88021559  0.84093669    -0.14550
C2253       C  0.48517792  0.90757728  0.83640847     0.36080
C2254       C  0.47335581  0.92162795  0.81469562    -0.25930
C2255       C  0.45269619  0.91003330  0.79987120    -0.15170
C2256       C  0.44112137  0.88617156  0.81007108     0.37160
N2257       N  0.41698708  0.87600191  0.79837077    -0.89420
H2258       H  0.44796900  0.85098067  0.83404841     0.18280
H2259       H  0.48153109  0.94060495  0.80831866     0.18270
N2260       N  0.50500512  0.92023851  0.85264060    -0.88440
H2261       H  0.41153433  0.85792050  0.80729852     0.35650
H2262       H  0.40160221  0.88971472  0.80249692     0.40740
H2263       H  0.49754333  0.92082155  0.87204174     0.40360
H2264       H  0.50766849  0.94008719  0.84661161     0.35250
C2265       C  0.82530029  0.53593368  0.87227541    -0.26480
C2266       C  0.82090971  0.54088944  0.84508910    -0.14550
C2267       C  0.80008170  0.55879631  0.83770114     0.36080
C2268       C  0.78396840  0.57086769  0.85754068    -0.25930
C2269       C  0.78834048  0.56573993  0.88470808    -0.15170
C2270       C  0.80921386  0.54771684  0.89202251     0.37160
N2271       N  0.81525838  0.54157826  0.91933671    -0.89420
H2272       H  0.84145395  0.52256092  0.87825979     0.18280
H2273       H  0.76883972  0.58551982  0.85186505     0.18270
N2274       N  0.79513002  0.56446591  0.81012459    -0.88440
H2275       H  0.81279632  0.52096966  0.92193844     0.35650
H2276       H  0.80161348  0.55074194  0.93222959     0.40740
H2277       H  0.81139300  0.57540736  0.80298300     0.40360
H2278       H  0.77826178  0.57687945  0.80799710     0.35250
C2279       C  0.87685936  0.55433476  0.81579862    -0.26480
C2280       C  0.85483016  0.54030029  0.80591129    -0.14550
C2281       C  0.85076373  0.53949075  0.77817337     0.36080
C2282       C  0.86790306  0.55366213  0.76098755    -0.25930
C2283       C  0.88939564  0.56852818  0.77093310    -0.15170
C2284       C  0.89438462  0.56802622  0.79873530     0.37160
N2285       N  0.91686035  0.58147360  0.81035624    -0.89420
H2286       H  0.88063080  0.55443884  0.83700360     0.18280
H2287       H  0.86337356  0.55440429  0.73993758     0.18270
N2288       N  0.82844923  0.52531775  0.76747736    -0.88440
H2289       H  0.90935862  0.59695228  0.82221252     0.35650
H2290       H  0.92916160  0.59004124  0.79590978     0.40740
H2291       H  0.83588632  0.51130578  0.75390251     0.40360
H2292       H  0.81639777  0.53897959  0.75703295     0.35250
C2293       C  0.88525362  0.48681713  0.81405860    -0.26480
C2294       C  0.85780011  0.48218833  0.80956989    -0.14550
C2295       C  0.85072565  0.46311740  0.79013529     0.36080
C2296       C  0.87084552  0.44911213  0.77618956    -0.25930
C2297       C  0.89824847  0.45283039  0.78160815    -0.15170
C2298       C  0.90542055  0.47266913  0.80028315     0.37160
N2299       N  0.93295252  0.47785299  0.80683284    -0.89420
H2300       H  0.89115267  0.50106624  0.82907450     0.18280
H2301       H  0.86494265  0.43331607  0.76275473     0.18270
N2302       N  0.82331299  0.45684540  0.78468078    -0.88440
H2303       H  0.93660660  0.49793797  0.80231197     0.35650
H2304       H  0.94595544  0.46670929  0.79482662     0.40740
H2305       H  0.81309369  0.47443533  0.77948531     0.40360
H2306       H  0.81468239  0.44897853  0.80189652     0.35250
C2307       C  0.82797020  0.46847643  0.86472902    -0.26480
C2308       C  0.81796513  0.48326457  0.84308803    -0.14550
C2309       C  0.78988800  0.48587235  0.84005814     0.36080
C2310       C  0.77246757  0.47355575  0.85832277    -0.25930
C2311       C  0.78240315  0.45835378  0.87971567    -0.15170
C2312       C  0.81065325  0.45615982  0.88308086     0.37160
N2313       N  0.82243840  0.44122112  0.90465643    -0.89420
H2314       H  0.84946403  0.46677179  0.86759504     0.18280
H2315       H  0.75103299  0.47448310  0.85478538     0.18270
N2316       N  0.77897761  0.50011926  0.81775239    -0.88440
H2317       H  0.83214065  0.42448387  0.89658293     0.35650
H2318       H  0.80789079  0.43422367  0.91782854     0.40740
H2319       H  0.76612992  0.51507398  0.82494850     0.40360
H2320       H  0.76741063  0.48679539  0.80674930     0.35250
C2321       C  0.88662881  0.54575207  0.17957950    -0.26480
C2322       C  0.85984723  0.54293758  0.18792351    -0.14550
C2323       C  0.85162160  0.55601412  0.21155531     0.36080
C2324       C  0.86986099  0.57214885  0.22538161    -0.25930
C2325       C  0.89629720  0.57585621  0.21646384    -0.15170
C2326       C  0.90489715  0.56189761  0.19346835     0.37160
N2327       N  0.93151547  0.56467321  0.18285676    -0.89420
H2328       H  0.89324834  0.53585297  0.16158648     0.18280
H2329       H  0.86280527  0.58322186  0.24254103     0.18270
N2330       N  0.82491745  0.55381780  0.22202015    -0.88440
H2331       H  0.94055654  0.54570377  0.18312038     0.35650
H2332       H  0.94332473  0.57674334  0.19492832     0.40740
H2333       H  0.81349031  0.54032445  0.21125090     0.40360
H2334       H  0.81562347  0.57258025  0.22019435     0.35250
C2335       C  0.83531236  0.55520739  0.13065850    -0.26480
C2336       C  0.82321568  0.54120407  0.15160932    -0.14550
C2337       C  0.79485290  0.54050489  0.15263834     0.36080
C2338       C  0.77936110  0.55522330  0.13400502    -0.25930
C2339       C  0.79159850  0.57026544  0.11379627    -0.15170
C2340       C  0.82002365  0.56920881  0.11161420     0.37160
N2341       N  0.83411023  0.58273156  0.09062352    -0.89420
H2342       H  0.85697545  0.55514921  0.12893017     0.18280
H2343       H  0.75776281  0.55615570  0.13632105     0.18270
N2344       N  0.78165213  0.52568378  0.17312660    -0.88440
H2345       H  0.84463501  0.59856087  0.09909288     0.35650
H2346       H  0.82095262  0.59087052  0.07655317     0.40740
H2347       H  0.76899485  0.51188781  0.16404909     0.40360
H2348       H  0.76965826  0.53899967  0.18396789     0.35250
C2349       C  0.83032023  0.48657115  0.12500854    -0.26480
C2350       C  0.82602015  0.48282561  0.15241766    -0.14550
C2351       C  0.80514880  0.46552311  0.16035085     0.36080
C2352       C  0.78894297  0.45300933  0.14097609    -0.25930
C2353       C  0.79321977  0.45690760  0.11361452    -0.15170
C2354       C  0.81424697  0.47417090  0.10568057     0.37160
N2355       N  0.82033737  0.47911090  0.07816399    -0.89420
H2356       H  0.84638938  0.49948964  0.11848724     0.18280
H2357       H  0.77373414  0.43898083  0.14725357     0.18270
N2358       N  0.80041508  0.46060163  0.18804434    -0.88440
H2359       H  0.81782269  0.49964006  0.07473901     0.35650
H2360       H  0.80677286  0.46962966  0.06561565     0.40740
H2361       H  0.81653950  0.44903688  0.19498182     0.40360
H2362       H  0.78333259  0.44889497  0.19063559     0.35250
C2363       C  0.88788791  0.47915968  0.17936279    -0.26480
C2364       C  0.86250392  0.48533321  0.18982680    -0.14550
C2365       C  0.85815223  0.48062835  0.21721415     0.36080
C2366       C  0.87757928  0.46653063  0.23247464    -0.25930
C2367       C  0.90207865  0.45807435  0.22126312    -0.15170
C2368       C  0.90789541  0.46660863  0.19487429     0.37160
N2369       N  0.93352948  0.46136551  0.18277881    -0.89420
H2370       H  0.89223845  0.48415215  0.15884439     0.18280
H2371       H  0.87258039  0.46038269  0.25252853     0.18270
N2372       N  0.83370194  0.48937196  0.22945443    -0.88440
H2373       H  0.93073829  0.44740835  0.16763028     0.35650
H2374       H  0.94698061  0.45296546  0.19644538     0.40740
H2375       H  0.83866250  0.50227088  0.24496049     0.40360
H2376       H  0.82438776  0.47268593  0.23783335     0.35250
C2377       C  0.53871765  0.80416885  0.14294266    -0.26480
C2378       C  0.53454323  0.83133719  0.13672200    -0.14550
C2379       C  0.54341722  0.84091795  0.11187961     0.36080
C2380       C  0.55732521  0.82352857  0.09450884    -0.25930
C2381       C  0.56362365  0.79689510  0.10170452    -0.15170
C2382       C  0.55313544  0.78692675  0.12598910     0.37160
N2383       N  0.55812350  0.75999537  0.13499101    -0.89420
H2384       H  0.53216687  0.79658687  0.16198276     0.18280
H2385       H  0.56589693  0.83161381  0.07641549     0.18270
N2386       N  0.53965808  0.86861395  0.10495723    -0.88440
H2387       H  0.57014935  0.76093584  0.15196693     0.35650
H2388       H  0.56860401  0.74878202  0.12092314     0.40740
H2389       H  0.51909741  0.87199496  0.10261220     0.40360
H2390       H  0.54843827  0.87277287  0.08654897     0.35250
C2391       C  0.55622429  0.85394671  0.19234470    -0.26480
C2392       C  0.54039591  0.86691119  0.17331167    -0.14550
C2393       C  0.54106889  0.89543529  0.17217141     0.36080
C2394       C  0.55868897  0.90958106  0.18916470    -0.25930
C2395       C  0.57342093  0.89619280  0.20911072    -0.15170
C2396       C  0.56952597  0.86815675  0.21205214     0.37160
N2397       N  0.57988437  0.85329319  0.23439894    -0.89420
H2398       H  0.55702372  0.83228478  0.19297570     0.18280
H2399       H  0.56137767  0.93088541  0.18629051     0.18270
N2400       N  0.52502598  0.91056333  0.15366265    -0.88440
H2401       H  0.59534167  0.84075119  0.22770131     0.35650
H2402       H  0.58755422  0.86594246  0.24895243     0.40740
H2403       H  0.51255805  0.89816599  0.14265848     0.40360
H2404       H  0.53805311  0.91973622  0.14021168     0.35250
C2405       C  0.48296301  0.87456499  0.23433518    -0.26480
C2406       C  0.46488995  0.89575831  0.22943076    -0.14550
C2407       C  0.45806095  0.90152179  0.20262418     0.36080
C2408       C  0.46860678  0.88543573  0.18197916    -0.25930
C2409       C  0.48430581  0.86247248  0.18735114    -0.15170
C2410       C  0.49067970  0.85660110  0.21423890     0.37160
N2411       N  0.50112587  0.83076805  0.22186706    -0.89420
H2412       H  0.48719207  0.86923565  0.25483276     0.18280
H2413       H  0.46365224  0.89035730  0.16156569     0.18270
N2414       N  0.43973028  0.92277532  0.19569697    -0.88440
H2415       H  0.50435471  0.82959664  0.24236371     0.35650
H2416       H  0.51944008  0.82720752  0.21290171     0.40740
H2417       H  0.43383294  0.93360494  0.21242729     0.40360
H2418       H  0.42248138  0.91405461  0.18787077     0.35250
C2419       C  0.45343631  0.78658641  0.14134930    -0.26480
C2420       C  0.44477524  0.79484090  0.11605533    -0.14550
C2421       C  0.45397091  0.81975073  0.10620057     0.36080
C2422       C  0.47039653  0.83596938  0.12227296    -0.25930
C2423       C  0.47755088  0.82841896  0.14835448    -0.15170
C2424       C  0.46881385  0.80314082  0.15768370     0.37160
N2425       N  0.47387263  0.79405699  0.18414875    -0.89420
H2426       H  0.44571597  0.76814835  0.14969601     0.18280
H2427       H  0.47685276  0.85512693  0.11462431     0.18270
N2428       N  0.44602264  0.82972163  0.08054234    -0.88440
H2429       H  0.46454307  0.80738298  0.19721390     0.35650
H2430       H  0.49451597  0.79355271  0.18741088     0.40740
H2431       H  0.43446678  0.81568532  0.07047753     0.40360
H2432       H  0.46346671  0.83212044  0.06927226     0.35250
C2433       C  0.15353801  0.52386931  0.79199190    -0.26480
C2434       C  0.14900505  0.53355859  0.81775717    -0.14550
C2435       C  0.12837110  0.55303313  0.82103474     0.36080
C2436       C  0.11349556  0.56223020  0.79867031    -0.25930
C2437       C  0.11763804  0.55119716  0.77318250    -0.15170
C2438       C  0.13669129  0.53015453  0.77074144     0.37160
N2439       N  0.14096591  0.51624435  0.74609330    -0.89420
H2440       H  0.17047102  0.51082024  0.78819788     0.18280
H2441       H  0.09976518  0.57899836  0.80095059     0.18270
N2442       N  0.12268125  0.56438330  0.84649795    -0.88440
H2443       H  0.15955465  0.52199931  0.73844674     0.35650
H2444       H  0.12627667  0.52121840  0.73207778     0.40740
H2445       H  0.13992069  0.57391509  0.85329820     0.40360
H2446       H  0.11810811  0.54883399  0.85964550     0.35250
C2447       C  0.17817478  0.54001839  0.88514243    -0.26480
C2448       C  0.18305906  0.53875193  0.85755145    -0.14550
C2449       C  0.20547560  0.55301811  0.84742276     0.36080
C2450       C  0.22120550  0.56849186  0.86466400    -0.25930
C2451       C  0.21519275  0.57130636  0.89181781    -0.15170
C2452       C  0.19343631  0.55644915  0.90215548     0.37160
N2453       N  0.18580566  0.55816524  0.92962276    -0.89420
H2454       H  0.16159890  0.52885255  0.89342784     0.18280
H2455       H  0.23715314  0.58041751  0.85616756     0.18270
N2456       N  0.21297156  0.55275887  0.81983306    -0.88440
H2457       H  0.16691491  0.56739214  0.93044809     0.35650
H2458       H  0.19901729  0.57020239  0.94023606     0.40740
H2459       H  0.20140525  0.53954138  0.80897262     0.40360
H2460       H  0.23264196  0.54541003  0.81860528     0.35250
C2461       C  0.21540158  0.48672835  0.85079139    -0.26480
C2462       C  0.18908282  0.48015877  0.85803329    -0.14550
C2463       C  0.18551273  0.46061129  0.87815121     0.36080
C2464       C  0.20827246  0.44813965  0.89023498    -0.25930
C2465       C  0.23460549  0.45523607  0.88300568    -0.15170
C2466       C  0.23784822  0.47566748  0.86359749     0.37160
N2467       N  0.26372556  0.48586102  0.85628761    -0.89420
H2468       H  0.21870400  0.50072792  0.83475489     0.18280
H2469       H  0.20545708  0.43227345  0.90466878     0.18270
N2470       N  0.15887981  0.45315458  0.88589717    -0.88440
H2471       H  0.26826014  0.47892126  0.83722289     0.35650
H2472       H  0.27883730  0.47930268  0.86916266     0.40740
H2473       H  0.14983483  0.46991512  0.89461247     0.40360
H2474       H  0.15960809  0.43827490  0.90054910     0.35250
C2475       C  0.15866602  0.46472027  0.80395190    -0.26480
C2476       C  0.14766162  0.47652141  0.82672054    -0.14550
C2477       C  0.11928738  0.47567485  0.82997761     0.36080
C2478       C  0.10332748  0.46198390  0.81114136    -0.25930
C2479       C  0.11446423  0.45088566  0.78786346    -0.15170
C2480       C  0.14241157  0.45437153  0.78383519     0.37160
N2481       N  0.15510815  0.44678671  0.75954507    -0.89420
H2482       H  0.18011376  0.46582238  0.80057367     0.18280
H2483       H  0.08224964  0.45896877  0.81532918     0.18270
N2484       N  0.10607982  0.48774014  0.85237901    -0.88440
H2485       H  0.15346887  0.42625173  0.75762055     0.35650
H2486       H  0.14483888  0.45605906  0.74386062     0.40740
H2487       H  0.11976576  0.49688860  0.86502670     0.40360
H2488       H  0.09718491  0.47239863  0.86336929     0.35250
C2489       C  0.53234412  0.22329299  0.85543481    -0.26480
C2490       C  0.53815384  0.19608834  0.86063064    -0.14550
C2491       C  0.55700311  0.19006484  0.88097581     0.36080
C2492       C  0.56985726  0.21110651  0.89457679    -0.25930
C2493       C  0.56491953  0.23832688  0.88843231    -0.15170
C2494       C  0.54503103  0.24420478  0.86912613     0.37160
N2495       N  0.53846993  0.27127118  0.86162555    -0.89420
H2496       H  0.51844611  0.22845410  0.83965601     0.18280
H2497       H  0.58581967  0.20608001  0.90839021     0.18270
N2498       N  0.56464054  0.16301176  0.88753910    -0.88440
H2499       H  0.54534663  0.27427002  0.84222258     0.35650
H2500       H  0.54819048  0.28504853  0.87374193     0.40740
H2501       H  0.55352293  0.14916982  0.87679504     0.40360
H2502       H  0.56000720  0.15981471  0.90755018     0.35250
C2503       C  0.55010493  0.12413328  0.79037099    -0.26480
C2504       C  0.57032360  0.13902962  0.77779481    -0.14550
C2505       C  0.57949411  0.16216691  0.79155714     0.36080
C2506       C  0.56458487  0.17299369  0.81264368    -0.25930
C2507       C  0.54217024  0.15998387  0.82315261    -0.15170
C2508       C  0.53718805  0.13365411  0.81371772     0.37160
N2509       N  0.51988264  0.11612604  0.82815201    -0.89420
H2510       H  0.54409616  0.10514289  0.78209940     0.18280
H2511       H  0.57088631  0.19197266  0.82073075     0.18270
N2512       N  0.60449527  0.17453444  0.78499606    -0.88440
H2513       H  0.53142761  0.09981298  0.83468053     0.35650
H2514       H  0.50566681  0.10867330  0.81490964     0.40740
H2515       H  0.61678128  0.17385871  0.80182575     0.40360
H2516       H  0.60076619  0.19468857  0.78050695     0.35250
C2517       C  0.48687061  0.16730005  0.79459069    -0.26480
C2518       C  0.48158661  0.15996181  0.82115031    -0.14550
C2519       C  0.46181484  0.13996586  0.82564263     0.36080
C2520       C  0.44810388  0.12857041  0.80391630    -0.25930
C2521       C  0.45374152  0.13573931  0.77749367    -0.15170
C2522       C  0.47363271  0.15537288  0.77294655     0.37160
N2523       N  0.48072713  0.16403752  0.74661171    -0.89420
H2524       H  0.50158233  0.18261874  0.79054329     0.18280
H2525       H  0.43233595  0.11428550  0.80780677     0.18270
N2526       N  0.45539301  0.13013664  0.85173016    -0.88440
H2527       H  0.47467500  0.18403453  0.74460467     0.35650
H2528       H  0.47070699  0.15318532  0.73204757     0.40740
H2529       H  0.46790833  0.13820377  0.86604718     0.40360
H2530       H  0.45946440  0.10956669  0.85195877     0.35250
C2531       C  0.46866243  0.20141983  0.90894484    -0.26480
C2532       C  0.45351015  0.22351275  0.90000183    -0.14550
C2533       C  0.45409452  0.22976685  0.87243353     0.36080
C2534       C  0.46724726  0.21255742  0.85453553    -0.25930
C2535       C  0.48147808  0.18988480  0.86335555    -0.15170
C2536       C  0.48299258  0.18497967  0.89103432     0.37160
N2537       N  0.49817478  0.16264563  0.90099230    -0.89420
H2538       H  0.46789568  0.19579461  0.92974692     0.18280
H2539       H  0.46685478  0.21729935  0.83350631     0.18270
N2540       N  0.44050110  0.25289441  0.86180524    -0.88440
H2541       H  0.48510640  0.15015945  0.91140584     0.35650
H2542       H  0.51212292  0.16992991  0.91459741     0.40740
H2543       H  0.43346858  0.26531228  0.87695318     0.40360
H2544       H  0.42394696  0.24623296  0.85103428     0.35250
C2545       C  0.89469260  0.84862815  0.54841669    -0.26480
C2546       C  0.87252365  0.83722625  0.53579540    -0.14550
C2547       C  0.86844936  0.80932118  0.53844462     0.36080
C2548       C  0.88571666  0.79384227  0.55470669    -0.25930
C2549       C  0.90688572  0.80557195  0.56866273    -0.15170
C2550       C  0.91211748  0.83316600  0.56439099     0.37160
N2551       N  0.93426421  0.84634508  0.57692809    -0.89420
H2552       H  0.89841535  0.86983210  0.54598089     0.18280
H2553       H  0.88126017  0.77294217  0.55826690     0.18270
N2554       N  0.84617405  0.79690209  0.52549129    -0.88440
H2555       H  0.94640831  0.85406087  0.56184145     0.35650
H2556       H  0.94631159  0.83269084  0.58734182     0.40740
H2557       H  0.82856522  0.80431671  0.53406805     0.40360
H2558       H  0.84636340  0.77624229  0.52887855     0.35250
C2559       C  0.81470601  0.86530240  0.54843132    -0.26480
C2560       C  0.83628106  0.87483261  0.53337503    -0.14550
C2561       C  0.83850562  0.90296252  0.52967126     0.36080
C2562       C  0.81923255  0.92036519  0.54112207    -0.25930
C2563       C  0.79716811  0.91064285  0.55558267    -0.15170
C2564       C  0.79457432  0.88260927  0.55827914     0.37160
N2565       N  0.77181508  0.87175635  0.57187675    -0.89420
H2566       H  0.81279937  0.84398163  0.55152442     0.18280
H2567       H  0.82228103  0.94178093  0.53987590     0.18270
N2568       N  0.86043358  0.91465649  0.51527966    -0.88440
H2569       H  0.77291575  0.85085568  0.57254780     0.35650
H2570       H  0.75476013  0.87672907  0.56076290     0.40740
H2571       H  0.87393666  0.90011700  0.50854796     0.40360
H2572       H  0.87112013  0.92653163  0.52857578     0.35250
C2573       C  0.83718786  0.88628504  0.45846700    -0.26480
C2574       C  0.83081655  0.86619548  0.47709570    -0.14550
C2575       C  0.80353203  0.86107975  0.48228145     0.36080
C2576       C  0.78351511  0.87673808  0.47024678    -0.25930
C2577       C  0.78949930  0.89556143  0.45033290    -0.15170
C2578       C  0.81677287  0.90063750  0.44461513     0.37160
N2579       N  0.82358664  0.91905350  0.42375645    -0.89420
H2580       H  0.85808855  0.89034229  0.45433297     0.18280
H2581       H  0.76273643  0.87179171  0.47413387     0.18270
N2582       N  0.79585343  0.83856894  0.49817260    -0.88440
H2583       H  0.84440745  0.91995584  0.42147706     0.35650
H2584       H  0.81722803  0.93809905  0.42971800     0.40740
H2585       H  0.78546815  0.82537519  0.48591702     0.40360
H2586       H  0.78216393  0.84519618  0.51248645     0.35250
C2587       C  0.90000795  0.83951064  0.47903081    -0.26480
C2588       C  0.87238157  0.83391283  0.47782285    -0.14550
C2589       C  0.86411937  0.81143658  0.46309126     0.36080
C2590       C  0.88343982  0.79535836  0.45004086    -0.25930
C2591       C  0.91061237  0.80265771  0.44878558    -0.15170
C2592       C  0.91902016  0.82458006  0.46436521     0.37160
N2593       N  0.94648511  0.83301957  0.46459164    -0.89420
H2594       H  0.90673252  0.85656802  0.49037179     0.18280
H2595       H  0.87673075  0.77892787  0.43781064     0.18270
N2596       N  0.83607147  0.80584278  0.46000993    -0.88440
H2597       H  0.94730634  0.85172459  0.45525430     0.35650
H2598       H  0.95861229  0.81992287  0.45365337     0.40740
H2599       H  0.82864622  0.79977403  0.47840371     0.40360
H2600       H  0.83330081  0.78973071  0.44714075     0.35250
C2601       C  0.79636352  0.16973133  0.52675012    -0.26480
C2602       C  0.82280140  0.16004755  0.52439005    -0.14550
C2603       C  0.82851878  0.13352278  0.53254645     0.36080
C2604       C  0.80786177  0.11756632  0.54320749    -0.25930
C2605       C  0.78159730  0.12763837  0.54654802    -0.15170
C2606       C  0.77571745  0.15370894  0.53689759     0.37160
N2607       N  0.74919336  0.16507546  0.53870114    -0.89420
H2608       H  0.79143977  0.18973140  0.51990526     0.18280
H2609       H  0.81292489  0.09821084  0.55172821     0.18270
N2610       N  0.85563761  0.12353795  0.53176952    -0.88440
H2611       H  0.74973826  0.18050878  0.55265237     0.35650
H2612       H  0.73547413  0.15095512  0.54556505     0.40740
H2613       H  0.86137784  0.12202351  0.51191780     0.40360
H2614       H  0.85671290  0.10414915  0.53961106     0.35250
C2615       C  0.87928346  0.19593141  0.53803281    -0.26480
C2616       C  0.85596447  0.19983806  0.52278680    -0.14550
C2617       C  0.84561054  0.22607647  0.51985956     0.36080
C2618       C  0.85872072  0.24764212  0.53209844    -0.25930
C2619       C  0.88165737  0.24385367  0.54801646    -0.15170
C2620       C  0.89207699  0.21737842  0.55092684     0.37160
N2621       N  0.91484189  0.21113833  0.56742936    -0.89420
H2622       H  0.88739814  0.17585743  0.54034105     0.18280
H2623       H  0.85001589  0.26755013  0.53052608     0.18270
N2624       N  0.82098681  0.23064655  0.50567472    -0.88440
H2625       H  0.90817223  0.19901805  0.58302580     0.35650
H2626       H  0.92293459  0.22814754  0.57605837     0.40740
H2627       H  0.82441743  0.22612607  0.48579010     0.40360
H2628       H  0.81548626  0.25088041  0.50624121     0.35250
C2629       C  0.87317434  0.22051740  0.43124236    -0.26480
C2630       C  0.90110177  0.22058010  0.43566133    -0.14550
C2631       C  0.91147737  0.20476627  0.45687151     0.36080
C2632       C  0.89371790  0.18946842  0.47254004    -0.25930
C2633       C  0.86607640  0.18831276  0.46679485    -0.15170
C2634       C  0.85598140  0.20390467  0.44566673     0.37160
N2635       N  0.82822480  0.20273470  0.43843288    -0.89420
H2636       H  0.86471936  0.23236734  0.41515120     0.18280
H2637       H  0.90179724  0.17738738  0.48861667     0.18270
N2638       N  0.93968698  0.20278925  0.46255808    -0.88440
H2639       H  0.82707597  0.19602150  0.41881644     0.35650
H2640       H  0.82019299  0.22212904  0.43898400     0.40740
H2641       H  0.95102323  0.21421984  0.44942802     0.40360
H2642       H  0.94557499  0.18288124  0.45959766     0.35250
C2643       C  0.80350425  0.15371460  0.46743318    -0.26480
C2644       C  0.83142393  0.14999879  0.46906174    -0.14550
C2645       C  0.84280479  0.12653699  0.45771368     0.36080
C2646       C  0.82613336  0.10847679  0.44418969    -0.25930
C2647       C  0.79835182  0.11310999  0.44157790    -0.15170
C2648       C  0.78683059  0.13503869  0.45529548     0.37160
N2649       N  0.75851893  0.14077025  0.45436859    -0.89420
H2650       H  0.79449374  0.17196896  0.47489840     0.18280
H2651       H  0.83537117  0.09219810  0.43321354     0.18270
N2652       N  0.87107691  0.12069725  0.45865862    -0.88440
H2653       H  0.75163007  0.14143503  0.47398455     0.35650
H2654       H  0.74814289  0.12516085  0.44541178     0.40740
H2655       H  0.88146059  0.13478623  0.46974583     0.40360
H2656       H  0.87844577  0.12177219  0.43923715     0.35250
C2657       C  0.21489032  0.85409516  0.53263601    -0.26480
C2658       C  0.19350830  0.87198810  0.52889539    -0.14550
C2659       C  0.19541277  0.89726469  0.54181585     0.36080
C2660       C  0.21858616  0.90373484  0.55702666    -0.25930
C2661       C  0.24172111  0.88712803  0.55706141    -0.15170
C2662       C  0.23984297  0.86301319  0.54185042     0.37160
N2663       N  0.26301625  0.84938777  0.53124629    -0.89420
H2664       H  0.21399170  0.83461767  0.52341324     0.18280
H2665       H  0.21866431  0.92228402  0.56805299     0.18270
N2666       N  0.17415368  0.91677606  0.53997653    -0.88440
H2667       H  0.26489024  0.83049502  0.54009677     0.35650
H2668       H  0.28057263  0.86038080  0.53351483     0.40740
H2669       H  0.15787100  0.90926942  0.52938448     0.40360
H2670       H  0.18146460  0.93313611  0.52927502     0.35250
C2671       C  0.13371368  0.83491510  0.54340212    -0.26480
C2672       C  0.15035094  0.82919548  0.52148125    -0.14550
C2673       C  0.15445425  0.80189758  0.51482865     0.36080
C2674       C  0.13965099  0.78182872  0.52734742    -0.25930
C2675       C  0.12360437  0.78707023  0.54965037    -0.15170
C2676       C  0.12096893  0.81419581  0.55794251     0.37160
N2677       N  0.10559187  0.82136667  0.58101874    -0.89420
H2678       H  0.12991844  0.85558615  0.54875641     0.18280
H2679       H  0.14368920  0.76120104  0.52184526     0.18270
N2680       N  0.17415644  0.79359382  0.49574621    -0.88440
H2681       H  0.11890674  0.82881301  0.59516236     0.35650
H2682       H  0.09645125  0.80460655  0.58940067     0.40740
H2683       H  0.18533221  0.80964409  0.48878522     0.40360
H2684       H  0.16378713  0.78569601  0.47973342     0.35250
C2685       C  0.10621008  0.81386349  0.45870536    -0.26480
C2686       C  0.12306649  0.80487658  0.43829662    -0.14550
C2687       C  0.14610150  0.82027513  0.43261055     0.36080
C2688       C  0.15536262  0.83920977  0.45102323    -0.25930
C2689       C  0.14128625  0.84440231  0.47470946    -0.15170
C2690       C  0.11440083  0.83457624  0.47587952     0.37160
N2691       N  0.09543857  0.84436700  0.49506525    -0.89420
H2692       H  0.08745075  0.80374814  0.46244721     0.18280
H2693       H  0.17493159  0.84724470  0.44755236     0.18270
N2694       N  0.16144715  0.81514674  0.40907352    -0.88440
H2695       H  0.09117792  0.82886163  0.50836692     0.35650
H2696       H  0.10335653  0.86039917  0.50565801     0.40740
H2697       H  0.18120492  0.81093498  0.41475774     0.40360
H2698       H  0.16175867  0.83281198  0.39788128     0.35250
C2699       C  0.18322936  0.90666651  0.46999363    -0.26480
C2700       C  0.19110818  0.88147689  0.48035056    -0.14550
C2701       C  0.21542830  0.87009025  0.47108500     0.36080
C2702       C  0.23222874  0.88460753  0.45452159    -0.25930
C2703       C  0.22358010  0.90830073  0.44208455    -0.15170
C2704       C  0.19876175  0.91954896  0.45000289     0.37160
N2705       N  0.18908006  0.94351119  0.43751682    -0.89420
H2706       H  0.16479750  0.91595267  0.47687581     0.18280
H2707       H  0.25100727  0.87529451  0.44847104     0.18270
N2708       N  0.22220600  0.84267767  0.47632578    -0.88440
H2709       H  0.18604482  0.95786124  0.45230234     0.35650
H2710       H  0.17047687  0.93938543  0.42895404     0.40740
H2711       H  0.22255064  0.83250248  0.45820555     0.40360
H2712       H  0.24167807  0.84184868  0.48396468     0.35250
C2713       C  0.56096748  0.13945617  0.17486801    -0.26480
C2714       C  0.54105167  0.15907551  0.17897438    -0.14550
C2715       C  0.53352564  0.16541156  0.20527845     0.36080
C2716       C  0.54441445  0.15074918  0.22655229    -0.25930
C2717       C  0.56495306  0.13167501  0.22279474    -0.15170
C2718       C  0.57343321  0.12606515  0.19638193     0.37160
N2719       N  0.59531022  0.10808768  0.19053617    -0.89420
H2720       H  0.56698634  0.13458297  0.15475867     0.18280
H2721       H  0.53860783  0.15601108  0.24664461     0.18270
N2722       N  0.51514165  0.18713978  0.21036108    -0.88440
H2723       H  0.58755743  0.09214856  0.17965337     0.35650
H2724       H  0.60373055  0.09987930  0.20769267     0.40740
H2725       H  0.52459019  0.20488944  0.20492502     0.40360
H2726       H  0.51095396  0.18864094  0.23065965     0.35250
C2727       C  0.54561385  0.21535882  0.14543896    -0.26480
C2728       C  0.53917087  0.18955578  0.13671037    -0.14550
C2729       C  0.54136758  0.18394890  0.10912631     0.36080
C2730       C  0.54927450  0.20413209  0.09140983    -0.25930
C2731       C  0.55862245  0.22885121  0.10053770    -0.15170
C2732       C  0.55535100  0.23495500  0.12786473     0.37160
N2733       N  0.56348693  0.26014466  0.13879685    -0.89420
H2734       H  0.54330268  0.22038007  0.16618744     0.18280
H2735       H  0.55241511  0.19887235  0.07074586     0.18270
N2736       N  0.53728477  0.15769577  0.09843170    -0.88440
H2737       H  0.54652214  0.26905441  0.14736217     0.35650
H2738       H  0.56968729  0.27325920  0.12389066     0.40740
H2739       H  0.53466133  0.14381274  0.11357184     0.40360
H2740       H  0.55506175  0.15180498  0.08898842     0.35250
C2741       C  0.46446547  0.19627955  0.09247957    -0.26480
C2742       C  0.45854627  0.22262855  0.10071172    -0.14550
C2743       C  0.46569369  0.23008665  0.12694759     0.36080
C2744       C  0.47825397  0.21116619  0.14373044    -0.25930
C2745       C  0.48260701  0.18446040  0.13585920    -0.15170
C2746       C  0.47507579  0.17691848  0.10989299     0.37160
N2747       N  0.47756516  0.14988624  0.10046728    -0.89420
H2748       H  0.45840702  0.18996560  0.07279981     0.18280
H2749       H  0.48435677  0.21728924  0.16344225     0.18270
N2750       N  0.45939100  0.25590736  0.13792009    -0.88440
H2751       H  0.45834768  0.14340576  0.09544382     0.35650
H2752       H  0.48416498  0.13700745  0.11544778     0.40740
H2753       H  0.44894488  0.26808309  0.12459055     0.40360
H2754       H  0.47752383  0.26542078  0.14195241     0.35250
C2755       C  0.46713879  0.15922393  0.19143895    -0.26480
C2756       C  0.48468443  0.14776263  0.17279141    -0.14550
C2757       C  0.49026684  0.11970079  0.17474498     0.36080
C2758       C  0.47738679  0.10422240  0.19427605    -0.25930
C2759       C  0.45948846  0.11579200  0.21235775    -0.15170
C2760       C  0.45537023  0.14381959  0.21166139     0.37160
N2761       N  0.43764238  0.15618785  0.23061900    -0.89420
H2762       H  0.46312649  0.18055001  0.19069374     0.18280
H2763       H  0.48006059  0.08266521  0.19418140     0.18270
N2764       N  0.50806841  0.10584664  0.15696588    -0.88440
H2765       H  0.43631288  0.17683166  0.22731557     0.35650
H2766       H  0.44616921  0.15353194  0.24942978     0.40740
H2767       H  0.51648869  0.11877736  0.14324278     0.40360
H2768       H  0.49666933  0.09224217  0.14612343     0.35250
C2769       C  0.22448785  0.55212486  0.13117098    -0.26480
C2770       C  0.21631415  0.56750111  0.10914985    -0.14550
C2771       C  0.18909709  0.56627114  0.10116409     0.36080
C2772       C  0.17078345  0.55098877  0.11597111    -0.25930
C2773       C  0.17858772  0.53666623  0.13887563    -0.15170
C2774       C  0.20627773  0.53656334  0.14589544     0.37160
N2775       N  0.21677946  0.52124093  0.16784538    -0.89420
H2776       H  0.24504026  0.55348547  0.13802451     0.18280
H2777       H  0.15035997  0.54963498  0.10890357     0.18270
N2778       N  0.17913185  0.58103641  0.07860687    -0.88440
H2779       H  0.23071306  0.50753764  0.16016177     0.35650
H2780       H  0.20203111  0.50981394  0.17691714     0.40740
H2781       H  0.19456724  0.59066381  0.06843767     0.40360
H2782       H  0.16609347  0.59589391  0.08568674     0.35250
C2783       C  0.10798910  0.56365570  0.19584039    -0.26480
C2784       C  0.11494232  0.55507552  0.22165296    -0.14550
C2785       C  0.13390046  0.53396935  0.22389135     0.36080
C2786       C  0.15050079  0.52816690  0.20235576    -0.25930
C2787       C  0.14317692  0.53485894  0.17627803    -0.15170
C2788       C  0.12090572  0.55270913  0.17313640     0.37160
N2789       N  0.11196077  0.56142545  0.14754884    -0.89420
H2790       H  0.09376669  0.57999697  0.19334171     0.18280
H2791       H  0.16854191  0.51674922  0.20612793     0.18270
N2792       N  0.13906017  0.52067361  0.24882435    -0.88440
H2793       H  0.10861882  0.54462803  0.13574140     0.35650
H2794       H  0.12699410  0.57308319  0.13910730     0.40740
H2795       H  0.12515834  0.52655160  0.26326716     0.40360
H2796       H  0.15820044  0.52583352  0.25541977     0.35250
C2797       C  0.15277780  0.47075947  0.19592603    -0.26480
C2798       C  0.13967064  0.47855026  0.17249145    -0.14550
C2799       C  0.11111070  0.47809825  0.17227416     0.36080
C2800       C  0.09692574  0.46888398  0.19497649    -0.25930
C2801       C  0.11031744  0.46224513  0.21877854    -0.15170
C2802       C  0.13873076  0.46507946  0.21924399     0.37160
N2803       N  0.15421541  0.46071595  0.24299871    -0.89420
H2804       H  0.17449170  0.47159439  0.19682805     0.18280
H2805       H  0.07548873  0.46583110  0.19361352     0.18270
N2806       N  0.09596827  0.48577752  0.14916749    -0.88440
H2807       H  0.16563466  0.44328219  0.24032842     0.35650
H2808       H  0.14194522  0.45801098  0.25959783     0.40740
H2809       H  0.10856643  0.49134174  0.13355908     0.40360
H2810       H  0.08452513  0.50266479  0.15415548     0.35250
C2811       C  0.18928469  0.48675450  0.11184383    -0.26480
C2812       C  0.17638690  0.47583878  0.13442916    -0.14550
C2813       C  0.18459272  0.44928085  0.14108952     0.36080
C2814       C  0.20880313  0.43864402  0.13092302    -0.25930
C2815       C  0.22548232  0.45342975  0.11381525    -0.15170
C2816       C  0.21456263  0.47743967  0.10298732     0.37160
N2817       N  0.22895488  0.49425019  0.08478739    -0.89420
H2818       H  0.18069657  0.50371499  0.10167678     0.18280
H2819       H  0.21515624  0.41888809  0.13747375     0.18270
N2820       N  0.16839057  0.43237507  0.15741206    -0.88440
H2821       H  0.22014320  0.49231391  0.06606311     0.35650
H2822       H  0.24912077  0.48892452  0.08325655     0.40740
H2823       H  0.17998329  0.42581729  0.17352993     0.40360
H2824       H  0.16322488  0.41555325  0.14630394     0.35250
C2825       C  0.12072567  0.18947183  0.51758087    -0.26480
C2826       C  0.14556477  0.18076809  0.52841307    -0.14550
C2827       C  0.15236310  0.19065979  0.55372393     0.36080
C2828       C  0.13698697  0.21139963  0.56522350    -0.25930
C2829       C  0.11588775  0.22438449  0.55131212    -0.15170
C2830       C  0.10667991  0.21199383  0.52774417     0.37160
N2831       N  0.08437192  0.22236310  0.51270830    -0.89420
H2832       H  0.11364574  0.18058283  0.49934075     0.18280
H2833       H  0.14381352  0.21966124  0.58388460     0.18270
N2834       N  0.17596325  0.18125661  0.56714741    -0.88440
H2835       H  0.09166633  0.22874024  0.49429883     0.35650
H2836       H  0.07578603  0.23909388  0.52172986     0.40740
H2837       H  0.17026214  0.17382026  0.58573670     0.40360
H2838       H  0.18860283  0.19754556  0.57017574     0.35250
C2839       C  0.21081251  0.14819146  0.52743991    -0.26480
C2840       C  0.18314976  0.14336232  0.52467393    -0.14550
C2841       C  0.17326279  0.11832191  0.53334917     0.36080
C2842       C  0.19074622  0.09988319  0.54596496    -0.25930
C2843       C  0.21786793  0.10587407  0.55122222    -0.15170
C2844       C  0.22816231  0.12998591  0.54046962     0.37160
N2845       N  0.25558279  0.13774532  0.54427934    -0.89420
H2846       H  0.21885090  0.16699089  0.52033792     0.18280
H2847       H  0.18230689  0.08182027  0.55439173     0.18270
N2848       N  0.14565497  0.11096612  0.53008523    -0.88440
H2849       H  0.26416749  0.14003979  0.52545855     0.35650
H2850       H  0.26663856  0.12263251  0.55367700     0.40740
H2851       H  0.13472119  0.12564211  0.51987908     0.40360
H2852       H  0.13718456  0.10937844  0.54902553     0.35250
C2853       C  0.18426900  0.12670133  0.46620506    -0.26480
C2854       C  0.18948445  0.15418696  0.46897401    -0.14550
C2855       C  0.21357627  0.16421545  0.45806882     0.36080
C2856       C  0.23101003  0.14694684  0.44375112    -0.25930
C2857       C  0.22503416  0.11975567  0.43987609    -0.15170
C2858       C  0.20176979  0.10943214  0.45236647     0.37160
N2859       N  0.19452832  0.08174282  0.45009008    -0.89420
H2860       H  0.16611720  0.11855232  0.47472199     0.18280
H2861       H  0.24826595  0.15527519  0.43368799     0.18270
N2862       N  0.22031061  0.19188454  0.46144282    -0.88440
H2863       H  0.19372410  0.07379737  0.46932386     0.35650
H2864       H  0.20942617  0.07081934  0.44021132     0.40740
H2865       H  0.20692904  0.20321843  0.44993823     0.40360
H2866       H  0.23940459  0.19563752  0.45376278     0.35250
C2867       C  0.16335644  0.22134194  0.48544624    -0.26480
C2868       C  0.15825142  0.19653893  0.47343554    -0.14550
C2869       C  0.13953858  0.19596753  0.45224732     0.36080
C2870       C  0.12664536  0.21980168  0.44368018    -0.25930
C2871       C  0.13185999  0.24464357  0.45571391    -0.15170
C2872       C  0.15033137  0.24506211  0.47720241     0.37160
N2873       N  0.15735662  0.26954110  0.49030565    -0.89420
H2874       H  0.17748818  0.22222033  0.50177424     0.18280
H2875       H  0.11362508  0.21915376  0.42646424     0.18270
N2876       N  0.13316610  0.17145914  0.43913964    -0.88440
H2877       H  0.15259541  0.26725879  0.51035244     0.35650
H2878       H  0.14561905  0.28560855  0.48361282     0.40740
H2879       H  0.12626059  0.15785356  0.45335832     0.40360
H2880       H  0.15070516  0.16370020  0.43065077     0.35250
loop_ 
_geom_bond_atom_site_label_1 
_geom_bond_atom_site_label_2 
_geom_bond_distance 
_geom_bond_site_symmetry_2 
_ccdc_geom_bond_type 
C1            C2   1.384       .  D
C1         C2854   1.518       .  S
C1         C2868   1.517       .  S
C2         C2826   1.532       .  S
C2         C2840   1.517       .  S
C3            C4   1.402       .  D
C3         C2773   1.511       .  S
C3         C2787   1.529       .  S
C4         C2798   1.519       .  S
C4         C2812   1.554       .  S
C5            C6   1.368       .  D
C5         C2745   1.504       .  S
C5         C2756   1.510       .  S
C6         C2714   1.502       .  S
C6         C2728   1.506       .  S
C7            C8   1.398       .  D
C7         C2672   1.514       .  S
C7         C2689   1.537       .  S
C8         C2658   1.522       .  S
C8         C2700   1.508       .  S
C9           C10   1.372       .  D
C9         C2633   1.505       .  S
C9         C2644   1.510       .  S
C10        C2602   1.505       .  S
C10        C2616   1.506       .  S
C11          C12   1.372       .  D
C11        C2574   1.509       .  S
C11        C2588   1.511       .  S
C12        C2546   1.505       .  S
C12        C2560   1.512       .  S
C13          C14   1.384       .  D
C13        C2490   1.528       .  S
C13        C2507   1.529       .  S
C14        C2518   1.525       .  S
C14        C2535   1.511       .  S
C15          C16   1.386       .  D
C15        C2434   1.524       .  S
C15        C2448   1.521       .  S
C16        C2462   1.518       .  S
C16        C2476   1.516       .  S
C17          C18   1.375       .  D
C17        C2409   1.513       .  S
C17        C2423   1.516       .  S
C18        C2378   1.507       .  S
C18        C2392   1.510       .  S
C19          C20   1.373       .  D
C19        C2350   1.519       .  S
C19        C2364   1.512       .  S
C20        C2322   1.509       .  S
C20        C2336   1.510       .  S
C21          C22   1.373       .  D
C21        C2294   1.511       .  S
C21        C2308   1.506       .  S
C22        C2266   1.510       .  S
C22        C2280   1.502       .  S
C23          C24   1.392       .  D
C23        C2238   1.523       .  S
C23        C2252   1.533       .  S
C24        C2210   1.517       .  S
C24        C2224   1.532       .  S
C25          C26   1.421       .  A
C25          C30   1.394       .  A
C25        C2182   1.493       .  S
C26          C27   1.430       .  A
C26          H31   1.081       .  S
C27          C28   1.416       .  A
C27        C2227   1.519       .  S
C28          C29   1.395       .  A
C28          H32   1.078       .  S
C29          C30   1.386       .  A
C29        C2196   1.481       .  S
C30          H33   1.086       .  S
C34          C35   1.398       .  A
C34          C39   1.419       .  A
C34        C2269   1.490       .  S
C35          C36   1.401       .  A
C35          H40   1.082       .  S
C36          C37   1.399       .  A
C36        C2168   1.493       .  S
C37          C38   1.405       .  A
C37          H41   1.085       .  S
C38          C39   1.419       .  A
C38        C2154   1.497       .  S
C39          H42   1.083       .  S
C43          C44   1.420       .  A
C43          C48   1.397       .  A
C43        C2126   1.493       .  S
C44          C45   1.423       .  A
C44          H49   1.082       .  S
C45          C46   1.403       .  A
C45        C2283   1.489       .  S
C46          C47   1.395       .  A
C46          H50   1.084       .  S
C47          C48   1.386       .  A
C47        C2140   1.480       .  S
C48          H51   1.084       .  S
C52          C53   1.420       .  A
C52          C57   1.403       .  A
C52        C2098   1.490       .  S
C53          C54   1.418       .  A
C53          H58   1.083       .  S
C54          C55   1.397       .  A
C54        C2549   1.492       .  S
C55          C56   1.396       .  A
C55          H59   1.085       .  S
C56          C57   1.396       .  A
C56        C2112   1.479       .  S
C57          H60   1.084       .  S
C61          C62   1.401       .  A
C61          C66   1.435       .  A
C61        C2563   1.499       .  S
C62          C63   1.389       .  A
C62          H67   1.086       .  S
C63          C64   1.388       .  A
C63        C2084   1.469       .  S
C64          C65   1.405       .  A
C64          H68   1.085       .  S
C65          C66   1.432       .  A
C65        C2070   1.508       .  S
C66          H69   1.082       .  S
C70          C71   1.422       .  A
C70          C75   1.399       .  A
C70        C2042   1.488       .  S
C71          C72   1.421       .  A
C71          H76   1.082       .  S
C72          C73   1.396       .  A
C72        C2213   1.485       .  S
C73          C74   1.384       .  A
C73          H77   1.086       .  S
C74          C75   1.393       .  A
C74        C2056   1.461       .  S
C75          H78   1.085       .  S
O79         Mg81   2.147       .  S
O79         Mg87   2.139       .  S
O79         C114   1.238       .  S
C80         H119   1.081       .  S
C80          O93   1.238       .  S
C80         O117   1.273       .  A
Mg81        O110   2.151       .  S
Mg81        O125   2.269       .  S
Mg81        O121   2.268       .  S
Mg81         O92   2.304       .  S
O82        Mg124   2.128       .  S
O82        Mg107   2.094       .  S
O82         C103   1.238       .  S
O83         C114   1.273       .  A
O83        Mg107   2.305       .  S
C84        C2087   1.457       .  S
C84          O86   1.268       .  A
C84          O98   1.256       .  A
O85         C113   1.274       .  A
O85         Mg87   2.324       .  S
O86        Mg118   2.268       .  S
Mg87         O93   2.127       .  S
Mg87        O101   2.274       .  S
Mg87         O89   2.312       .  S
C88        C2115   1.476       .  S
C88         O126   1.263       .  A
C88          O94   1.263       .  A
O89          C96   1.276       .  A
H90         C103   1.081       .  S
C91         H116   1.081       .  S
C91         O105   1.236       .  S
C91         O106   1.269       .  A
O92         C115   1.271       .  A
O93        Mg107   2.165       .  S
O94        Mg124   2.228       .  S
C95        C2143   1.459       .  S
C95         O108   1.263       .  A
C95         O100   1.268       .  A
C96        C2171   1.469       .  S
C96         O123   1.264       .  A
Mg97        O104   2.139       .  S
Mg97        O105   2.162       .  S
Mg97         O98   2.212       .  S
Mg97         O99   2.290       .  S
Mg97        O126   2.290       .  S
O99         C103   1.270       .  A
O100       Mg107   2.252       .  S
O101        C120   1.272       .  A
O102        C122   1.266       .  A
O102       Mg118   2.221       .  S
O104       Mg118   2.154       .  S
O104        C115   1.237       .  S
O105       Mg124   2.096       .  S
O106       Mg118   2.296       .  S
Mg107       O123   2.212       .  S
O108       Mg124   2.234       .  S
H109        C114   1.081       .  S
O110       Mg118   2.126       .  S
O110        C113   1.238       .  S
H111        C113   1.081       .  S
H112        C115   1.081       .  S
O117       Mg124   2.324       .  S
C120       C2199   1.475       .  S
C120        O125   1.265       .  A
O121        C122   1.269       .  A
C122       C2059   1.459       .  S
C127        C128   1.392   1_556  D
C127       C2157   1.531       .  S
C127       C2185   1.507       .  S
C128       C2014   1.534       .  S
C128       C2028   1.524       .  S
C129        C130   1.383   1_565  D
C129       C2045   1.509       .  S
C129       C2073   1.531       .  S
C130       C1986   1.510       .  S
C130       C2000   1.518       .  S
C131        C132   1.386   1_655  D
C131       C2101   1.499       .  S
C131       C2129   1.510       .  S
C132       C1958   1.516       .  S
C132       C1975   1.549       .  S
C133        C134   1.400       .  A
C133        C138   1.426       .  A
C133       C2311   1.489       .  S
C134        C135   1.390       .  A
C134        H139   1.085       .  S
C135        C136   1.380       .  A
C135       C1947   1.457       .  S
C136        C137   1.391       .  A
C136        H140   1.086       .  S
C137        C138   1.422       .  A
C137       C1933   1.486       .  S
C138        H141   1.082       .  S
C142        C143   1.392       .  A
C142        C147   1.434       .  A
C142       C2493   1.500       .  S
C143        C144   1.384       .  A
C143        H148   1.086       .  S
C144        C145   1.393       .  A
C144       C1916   1.473       .  S
C145        C146   1.412       .  A
C145        H149   1.084       .  S
C146        C147   1.439       .  A
C146       C1905   1.530       .  S
C147        H150   1.082       .  S
C151        C152   1.396       .  A
C151        C156   1.421       .  A
C151       C2297   1.491       .  S
C152        C153   1.394       .  A
C152        H157   1.084       .  S
C153        C154   1.401       .  A
C153       C1888   1.486       .  S
C154        C155   1.408       .  A
C154        H158   1.082       .  S
C155        C156   1.425       .  A
C155       C1874   1.515       .  S
C156        H159   1.082       .  S
C160        C161   1.405       .  A
C160        C165   1.427       .  A
C160       C2619   1.500       .  S
C161        C162   1.395       .  A
C161        H166   1.084       .  S
C162        C163   1.387       .  A
C162       C1860   1.473       .  S
C163        C164   1.394       .  A
C163        H167   1.087       .  S
C164        C165   1.422       .  A
C164       C1846   1.489       .  S
C165        H168   1.083       .  S
C169        C170   1.425       .  A
C169        C174   1.387       .  A
C169       C2605   1.483       .  S
C170        C171   1.429       .  A
C170        H175   1.082       .  S
C171        C172   1.400       .  A
C171       C1989   1.490       .  S
C172        C173   1.385       .  A
C172        H176   1.085       .  S
C173        C174   1.375       .  A
C173       C1835   1.442       .  S
C174        H177   1.087       .  S
C178        C179   1.440       .  A
C178        C183   1.409       .  A
C178       C2504   1.525       .  S
C179        C180   1.436       .  A
C179        H184   1.082       .  S
C180        C181   1.401       .  A
C180       C2003   1.499       .  S
C181        C182   1.381       .  A
C181        H185   1.086       .  S
C182        C183   1.389       .  A
C182       C1818   1.478       .  S
C183        H186   1.079       .  S
O187       Mg189   2.090       .  S
O187       Mg195   2.176       .  S
O187        C222   1.234       .  S
C188        H227   1.081       .  S
C188        O201   1.237       .  S
C188        O225   1.269       .  A
Mg189       O218   2.114       .  S
Mg189       O233   2.199       .  S
Mg189       O229   2.254       .  S
Mg189       O200   2.329       .  S
O190       Mg232   2.150       .  S
O190       Mg215   2.138       .  S
O190        C211   1.239       .  S
O191        C222   1.267       .  A
O191       Mg215   2.279       .  S
C192       C1821   1.465       .  S
C192        O194   1.264       .  A
C192        O206   1.272       .  A
O193        C221   1.265       .  A
O193       Mg195   2.280       .  S
O194       Mg226   2.225       .  S
Mg195       O201   2.103       .  S
Mg195       O209   2.293       .  S
Mg195       O197   2.275       .  S
C196       C1919   1.466       .  S
C196        O234   1.262       .  A
C196        O202   1.257       .  A
O197        C204   1.275       .  A
H198        C211   1.081       .  S
C199        H224   1.081       .  S
C199        O213   1.236       .  S
C199        O214   1.270       .  A
O200        C223   1.279       .  A
O201       Mg215   2.146       .  S
O202       Mg232   2.217       .  S
C203       C1944   1.455       .  S
C203        O216   1.266       .  A
C203        O208   1.267       .  A
C204       C1891   1.460       .  S
C204        O231   1.271       .  A
Mg205       O212   2.095       .  S
Mg205       O213   2.154       .  S
Mg205       O206   2.284       .  S
Mg205       O207   2.338       .  S
Mg205       O234   2.283       .  S
O207        C211   1.277       .  A
O208       Mg215   2.243       .  S
O209        C228   1.273       .  A
O210        C230   1.253       .  A
O210       Mg226   2.223       .  S
O212       Mg226   2.133       .  S
O212        C223   1.243       .  S
O213       Mg232   2.122       .  S
O214       Mg226   2.305       .  S
Mg215       O231   2.249       .  S
O216       Mg232   2.227       .  S
H217        C222   1.081       .  S
O218       Mg226   2.091       .  S
O218        C221   1.234       .  S
H219        C221   1.081       .  S
H220        C223   1.081       .  S
O225       Mg232   2.294       .  S
C228       C1863   1.475       .  S
C228        O233   1.264       .  A
O229        C230   1.259       .  A
C230       C1832   1.436       .  S
C235        C236   1.431       .  A
C235        C240   1.392       .  A
C235       C1790   1.492       .  S
C236        C237   1.428       .  A
C236        H241   1.082       .  S
C237        C238   1.394       .  A
C237       C2241   1.494       .  S
C238        C239   1.389       .  A
C238        H242   1.086       .  S
C239        C240   1.385       .  A
C239       C1804   1.461       .  S
C240        H243   1.086       .  S
C244        C245   1.438       .  A
C244        C249   1.414       .  A
C244       C1765   1.541       .  S
C245        C246   1.429       .  A
C245        H250   1.078       .  S
C246        C247   1.392       .  A
C246       C2451   1.500       .  S
C247        C248   1.389       .  A
C247        H251   1.084       .  S
C248        C249   1.404       .  A
C248       C1776   1.486       .  S
C249        H252   1.081       .  S
C253        C254   1.401       .  A
C253        C258   1.435       .  A
C253       C2255   1.512       .  S
C254        C255   1.383       .  A
C254        H259   1.084       .  S
C255        C256   1.383       .  A
C255       C1748   1.468       .  S
C256        C257   1.403       .  A
C256        H260   1.086       .  S
C257        C258   1.439       .  A
C257       C1734   1.503       .  S
C258        H261   1.082       .  S
C262        C263   1.434       .  A
C262        C267   1.399       .  A
C262       C1706   1.500       .  S
C263        C264   1.434       .  A
C263        H268   1.082       .  S
C264        C265   1.406       .  A
C264       C2661   1.541       .  S
C265        C266   1.405       .  A
C265        H269   1.066       .  S
C266        C267   1.390       .  A
C266       C1720   1.504       .  S
C267        H270   1.082       .  S
C271        C272   1.431       .  A
C271        C276   1.397       .  A
C271       C1961   1.488       .  S
C272        C273   1.427       .  A
C272        H277   1.082       .  S
C273        C274   1.396       .  A
C273       C2437   1.497       .  S
C274        C275   1.381       .  A
C274        H278   1.087       .  S
C275        C276   1.380       .  A
C275       C1692   1.446       .  S
C276        H279   1.086       .  S
C280        C281   1.440       .  A
C280        C285   1.414       .  A
C280       C1972   1.528       .  S
C281        C282   1.429       .  A
C281        H286   1.080       .  S
C282        C283   1.386       .  A
C282       C2675   1.495       .  S
C283        C284   1.381       .  A
C283        H287   1.086       .  S
C284        C285   1.389       .  A
C284       C1678   1.472       .  S
C285        H288   1.079       .  S
O289       Mg291   2.152       .  S
O289       Mg297   2.164       .  S
O289        C324   1.236       .  S
C290        H329   1.081       .  S
C290        O303   1.236       .  S
C290        O327   1.271       .  A
Mg291       O320   2.138       .  S
Mg291       O335   2.203       .  S
Mg291       O331   2.292       .  S
Mg291       O302   2.300       .  S
O292       Mg334   2.111       .  S
O292       Mg317   2.102       .  S
O292        C313   1.241       .  S
O293        C324   1.272       .  A
O293       Mg317   2.319       .  S
C294       C1681   1.465       .  S
C294        O296   1.267       .  A
C294        O308   1.262       .  A
O295        C323   1.272       .  A
O295       Mg297   2.306       .  S
O296       Mg328   2.275       .  S
Mg297       O303   2.132       .  S
Mg297       O311   2.254       .  S
Mg297       O299   2.244       .  S
C298       C1695   1.446       .  S
C298        O336   1.260       .  A
C298        O304   1.264       .  A
O299        C306   1.266       .  A
H300        C313   1.081       .  S
C301        H326   1.081       .  S
C301        O315   1.234       .  S
C301        O316   1.267       .  A
O302        C325   1.271       .  A
O303       Mg317   2.141       .  S
O304       Mg334   2.252       .  S
C305       C1779   1.479       .  S
C305        O318   1.267       .  A
C305        O310   1.269       .  A
C306       C1807   1.440       .  S
C306        O333   1.261       .  A
Mg307       O314   2.108       .  S
Mg307       O315   2.146       .  S
Mg307       O308   2.233       .  S
Mg307       O309   2.309       .  S
Mg307       O336   2.204       .  S
O309        C313   1.275       .  A
O310       Mg317   2.297       .  S
O311        C330   1.265       .  A
O312        C332   1.274       .  A
O312       Mg328   2.288       .  S
O314       Mg328   2.141       .  S
O314        C325   1.237       .  S
O315       Mg334   2.098       .  S
O316       Mg328   2.297       .  S
Mg317       O333   2.213       .  S
O318       Mg334   2.223       .  S
H319        C324   1.081       .  S
O320       Mg328   2.091       .  S
O320        C323   1.238       .  S
H321        C323   1.081       .  S
H322        C325   1.081       .  S
O327       Mg334   2.312       .  S
C330       C1751   1.441       .  S
C330        O335   1.255       .  A
O331        C332   1.265       .  A
C332       C1723   1.489       .  S
C337        C338   1.377   1_565  D
C337       C1709   1.518       .  S
C337       C1737   1.513       .  S
C338       C1650   1.510       .  S
C338       C1667   1.522       .  S
C339        C340   1.396       .  A
C339        C344   1.428       .  A
C339       C2532   1.491       .  S
C340        C341   1.384       .  A
C340        H345   1.086       .  S
C341        C342   1.388       .  A
C341       C1639   1.456       .  S
C342        C343   1.400       .  A
C342        H346   1.086       .  S
C343        C344   1.430       .  A
C343       C1622   1.503       .  S
C344        H347   1.082       .  S
C348        C349   1.425       .  A
C348        C353   1.391       .  A
C348       C1594   1.491       .  S
C349        C350   1.425       .  A
C349        H354   1.082       .  S
C350        C351   1.408       .  A
C350       C2465   1.505       .  S
C351        C352   1.402       .  A
C351        H355   1.083       .  S
C352        C353   1.386       .  A
C352       C1608   1.479       .  S
C353        H356   1.086       .  S
C357        C358   1.431       .  A
C357        C362   1.398       .  A
C357       C1664   1.502       .  S
C358        C359   1.433       .  A
C358        H363   1.082       .  S
C359        C360   1.394       .  A
C359       C2843   1.498       .  S
C360        C361   1.382       .  A
C360        H364   1.087       .  S
C361        C362   1.387       .  A
C361       C1583   1.454       .  S
C362        H365   1.086       .  S
C366        C367   1.392       .  A
C366        C371   1.428       .  A
C366       C1653   1.498       .  S
C367        C368   1.385       .  A
C367        H372   1.086       .  S
C368        C369   1.398       .  A
C368       C1566   1.469       .  S
C369        C370   1.404       .  A
C369        H373   1.084       .  S
C370        C371   1.431       .  A
C370       C2521   1.502       .  S
C371        H374   1.082       .  S
C375        C376   1.405       .  A
C375        C380   1.432       .  A
C375       C2829   1.515       .  S
C376        C377   1.390       .  A
C376        H381   1.085       .  S
C377        C378   1.385       .  A
C377       C1552   1.464       .  S
C378        C379   1.401       .  A
C378        H382   1.086       .  S
C379        C380   1.433       .  A
C379       C1538   1.499       .  S
C380        H383   1.082       .  S
C384        C385   1.446       .  A
C384        C389   1.414       .  A
C384       C1510   1.533       .  S
C385        C386   1.440       .  A
C385        H390   1.082       .  S
C386        C387   1.394       .  A
C386       C2479   1.505       .  S
C387        C388   1.382       .  A
C387        H391   1.086       .  S
C388        C389   1.390       .  A
C388       C1527   1.483       .  S
C389        H392   1.082       .  S
O393       Mg395   2.120       .  S
O393       Mg401   2.114       .  S
O393        C428   1.241       .  S
C394        H433   1.081       .  S
C394        O407   1.235       .  S
C394        O431   1.268       .  A
Mg395       O424   2.129       .  S
Mg395       O439   2.251       .  S
Mg395       O435   2.240       .  S
Mg395       O406   2.298       .  S
O396       Mg438   2.132       .  S
O396       Mg421   2.118       .  S
O396        C417   1.239       .  S
O397        C428   1.274       .  A
O397       Mg421   2.306       .  S
C398       C1636   1.459       .  S
C398        O400   1.265       .  A
C398        O412   1.263       .  A
O399        C427   1.277       .  A
O399       Mg401   2.329       .  S
O400       Mg432   2.262       .  S
Mg401       O407   2.087       .  S
Mg401       O415   2.260       .  S
Mg401       O403   2.264       .  S
C402       C1611   1.470       .  S
C402        O440   1.266       .  A
C402        O408   1.264       .  A
O403        C410   1.267       .  A
H404        C417   1.081       .  S
C405        H430   1.081       .  S
C405        O419   1.240       .  S
C405        O420   1.274       .  A
O406        C429   1.270       .  A
O407       Mg421   2.146       .  S
O408       Mg438   2.258       .  S
C409       C1524   1.459       .  S
C409        O422   1.260       .  A
C409        O414   1.268       .  A
C410       C1555   1.458       .  S
C410        O437   1.267       .  A
Mg411       O418   2.089       .  S
Mg411       O419   2.101       .  S
Mg411       O412   2.254       .  S
Mg411       O413   2.313       .  S
Mg411       O440   2.235       .  S
O413        C417   1.274       .  A
O414       Mg421   2.245       .  S
O415        C434   1.263       .  A
O416        C436   1.266       .  A
O416       Mg432   2.244       .  S
O418       Mg432   2.146       .  S
O418        C429   1.238       .  S
O419       Mg438   2.095       .  S
O420       Mg432   2.314       .  S
Mg421       O437   2.262       .  S
O422       Mg438   2.214       .  S
H423        C428   1.080       .  S
O424       Mg432   2.107       .  S
O424        C427   1.241       .  S
H425        C427   1.081       .  S
H426        C429   1.081       .  S
O431       Mg438   2.306       .  S
C434       C1580   1.440       .  S
C434        O439   1.256       .  A
O435        C436   1.266       .  A
C436       C1569   1.461       .  S
C441        C442   1.384   1_655  D
C441       C1849   1.503       .  S
C441       C1877   1.518       .  S
C442       C1513   1.544       .  S
C442       C1541   1.522       .  S
C443        C444   1.383   1_554  D
C443       C1482   1.532       .  S
C443       C1496   1.513       .  S
C444       C1597   1.512       .  S
C444       C1625   1.518       .  S
C445        C446   1.388       .  D
C445       C1454   1.528       .  S
C445       C1471   1.522       .  S
C446       C1429   1.516   1_545  S
C446       C1440   1.505   1_545  S
C447        C448   1.423       .  A
C447        C452   1.397       .  A
C447       C1499   1.495       .  S
C448        C449   1.426       .  A
C448        H453   1.083       .  S
C449        C450   1.413       .  A
C449       C2815   1.512       .  S
C450        C451   1.398       .  A
C450        H454   1.083       .  S
C451        C452   1.388       .  A
C451       C1412   1.479       .  S
C452        H455   1.086       .  S
C456        C457   1.422       .  A
C456        C461   1.398       .  A
C456       C2742   1.495       .  S
C457        C458   1.420       .  A
C457        H462   1.083       .  S
C458        C459   1.404       .  A
C458       C1485   1.495       .  S
C459        C460   1.397       .  A
C459        H463   1.083       .  S
C460        C461   1.396       .  A
C460       C1398   1.489       .  S
C461        H464   1.082       .  S
C465        C466   1.423       .  A
C465        C470   1.397       .  A
C465       C1468   1.492       .  S
C466        C467   1.427       .  A
C466        H471   1.082       .  S
C467        C468   1.399       .  A
C467       C2759   1.484       .  S
C468        C469   1.381       .  A
C468        H472   1.086       .  S
C469        C470   1.375       .  A
C469       C1384   1.445       .  S
C470        H473   1.087       .  S
C474        C475   1.431       .  A
C474        C479   1.412       .  A
C474       C1457   1.519       .  S
C475        C476   1.427       .  A
C475        H480   1.082       .  S
C476        C477   1.394       .  A
C476       C2857   1.497       .  S
C477        C478   1.386       .  A
C477        H481   1.084       .  S
C478        C479   1.397       .  A
C478       C1370   1.481       .  S
C479        H482   1.081       .  S
C483        C484   1.397       .  A
C483        C488   1.433       .  A
C483       C2871   1.499       .  S
C484        C485   1.387       .  A
C484        H489   1.086       .  S
C485        C486   1.388       .  A
C485       C1356   1.463       .  S
C486        C487   1.400       .  A
C486        H490   1.085       .  S
C487        C488   1.433       .  A
C487       C1342   1.505       .  S
C488        H491   1.082       .  S
C492        C493   1.401       .  A
C492        C497   1.437       .  A
C492       C1314   1.493       .  S
C493        C494   1.381       .  A
C493        H498   1.085       .  S
C494        C495   1.380       .  A
C494       C1328   1.442       .  S
C495        C496   1.383       .  A
C495        H499   1.088       .  S
C496        C497   1.431       .  A
C496       C2801   1.500       .  S
C497        H500   1.082       .  S
O501       Mg503   2.069       .  S
O501       Mg509   2.117       .  S
O501        C536   1.236       .  S
C502        H541   1.081       .  S
C502        O515   1.239       .  S
C502        O539   1.272       .  A
Mg503       O532   2.103       .  S
Mg503       O547   2.285       .  S
Mg503       O543   2.261       .  S
Mg503       O514   2.352       .  S
O504       Mg546   2.140       .  S
O504       Mg529   2.114       .  S
O504        C525   1.234       .  S
O505        C536   1.268       .  A
O505       Mg529   2.278       .  S
C506       C1359   1.461       .  S
C506        O508   1.257       .  A
C506        O520   1.267       .  A
O507        C535   1.269       .  A
O507       Mg509   2.304       .  S
O508       Mg540   2.191       .  S
Mg509       O515   2.121       .  S
Mg509       O523   2.268       .  S
Mg509       O511   2.254       .  S
C510       C1373   1.468       .  S
C510        O548   1.270       .  A
C510        O516   1.271       .  A
O511        C518   1.271       .  A
H512        C525   1.081       .  S
C513        H538   1.081       .  S
C513        O527   1.237       .  S
C513        O528   1.269       .  A
O514        C537   1.279       .  A
O515       Mg529   2.167       .  S
O516       Mg546   2.297       .  S
C517       C1387   1.433       .  S
C517        O530   1.265       .  A
C517        O522   1.265       .  A
C518       C1401   1.471       .  S
C518        O545   1.269       .  A
Mg519       O526   2.125       .  S
Mg519       O527   2.132       .  S
Mg519       O520   2.276       .  S
Mg519       O521   2.294       .  S
Mg519       O548   2.238       .  S
O521        C525   1.267       .  A
O522       Mg529   2.213       .  S
O523        C542   1.274       .  A
O524        C544   1.248       .  A
O524       Mg540   2.168       .  S
O526       Mg540   2.130       .  S
O526        C537   1.242       .  S
O527       Mg546   2.084       .  S
O528       Mg540   2.293       .  S
Mg529       O545   2.246       .  S
O530       Mg546   2.226       .  S
H531        C536   1.081       .  S
O532       Mg540   2.093       .  S
O532        C535   1.235       .  S
H533        C535   1.081       .  S
H534        C537   1.081       .  S
O539       Mg546   2.297       .  S
C542       C1415   1.467       .  S
C542        O547   1.268       .  A
O543        C544   1.258       .  A
C544       C1331   1.430       .  S
C549        C550   1.386   1_455  D
C549       C1317   1.514       .  S
C549       C1345   1.517       .  S
C550       C1286   1.514       .  S
C550       C1300   1.516       .  S
C551        C552   1.394   1_556  D
C551       C1902   1.526       .  S
C551       C1930   1.515       .  S
C552       C1258   1.539       .  S
C552       C1272   1.518       .  S
C553        C554   1.434       .  A
C553        C558   1.397       .  A
C553       C2367   1.503       .  S
C554        C555   1.436       .  A
C554        H559   1.082       .  S
C555        C556   1.410       .  A
C555       C1303   1.529       .  S
C556        C557   1.395       .  A
C556        H560   1.081       .  S
C557        C558   1.385       .  A
C557       C1244   1.481       .  S
C558        H561   1.084       .  S
C562        C563   1.427       .  A
C562        C567   1.407       .  A
C562       C2630   1.500       .  S
C563        C564   1.422       .  A
C563        H568   1.083       .  S
C564        C565   1.396       .  A
C564       C1289   1.493       .  S
C565        C566   1.382       .  A
C565        H569   1.086       .  S
C566        C567   1.389       .  A
C566       C1230   1.462       .  S
C567        H570   1.085       .  S
C571        C572   1.418       .  A
C571        C576   1.393       .  A
C571       C2731   1.483       .  S
C572        C573   1.419       .  A
C572        H577   1.082       .  S
C573        C574   1.409       .  A
C573       C1275   1.495       .  S
C574        C575   1.398       .  A
C574        H578   1.084       .  S
C575        C576   1.383       .  A
C575       C1216   1.478       .  S
C576        H579   1.085       .  S
C580        C581   1.431       .  A
C580        C585   1.402       .  A
C580       C2353   1.499       .  S
C581        C582   1.429       .  A
C581        H586   1.082       .  S
C582        C583   1.405       .  A
C582       C1261   1.512       .  S
C583        C584   1.392       .  A
C583        H587   1.086       .  S
C584        C585   1.393       .  A
C584       C1202   1.470       .  S
C585        H588   1.085       .  S
C589        C590   1.398       .  A
C589        C594   1.421       .  A
C589       C2717   1.492       .  S
C590        C591   1.387       .  A
C590        H595   1.086       .  S
C591        C592   1.392       .  A
C591       C1188   1.461       .  S
C592        C593   1.399       .  A
C592        H596   1.086       .  S
C593        C594   1.420       .  A
C593       C1174   1.487       .  S
C594        H597   1.083       .  S
C598        C599   1.418       .  A
C598        C603   1.391       .  A
C598       C2647   1.480       .  S
C599        C600   1.421       .  A
C599        H604   1.083       .  S
C600        C601   1.404       .  A
C600       C1146   1.489       .  S
C601        C602   1.397       .  A
C601        H605   1.084       .  S
C602        C603   1.383       .  A
C602       C1160   1.466       .  S
C603        H606   1.087       .  S
O607       Mg609   2.120       .  S
O607       Mg615   2.119       .  S
O607        C642   1.236       .  S
C608        H647   1.081       .  S
C608        O621   1.235       .  S
C608        O645   1.267       .  A
Mg609       O638   2.141       .  S
Mg609       O653   2.281       .  S
Mg609       O649   2.257       .  S
Mg609       O620   2.290       .  S
O610       Mg652   2.147       .  S
O610       Mg635   2.099       .  S
O610        C631   1.240       .  S
O611        C642   1.269       .  A
O611       Mg635   2.289       .  S
C612       C1247   1.456       .  S
C612        O614   1.263       .  A
C612        O626   1.260       .  A
O613        C641   1.271       .  A
O613       Mg615   2.297       .  S
O614       Mg646   2.274       .  S
Mg615       O621   2.094       .  S
Mg615       O629   2.209       .  S
Mg615       O617   2.299       .  S
C616       C1233   1.464       .  S
C616        O654   1.265       .  A
C616        O622   1.251       .  A
O617        C624   1.274       .  A
H618        C631   1.081       .  S
C619        H644   1.081       .  S
C619        O633   1.240       .  S
C619        O634   1.276       .  A
O620        C643   1.269       .  A
O621       Mg635   2.153       .  S
O622       Mg652   2.218       .  S
C623       C1163   1.464       .  S
C623        O636   1.267       .  A
C623        O628   1.264       .  A
C624       C1191   1.450       .  S
C624        O651   1.263       .  A
Mg625       O632   2.129       .  S
Mg625       O633   2.127       .  S
Mg625       O626   2.253       .  S
Mg625       O627   2.342       .  S
Mg625       O654   2.296       .  S
O627        C631   1.277       .  A
O628       Mg635   2.231       .  S
O629        C648   1.269       .  A
O630        C650   1.266       .  A
O630       Mg646   2.255       .  S
O632       Mg646   2.169       .  S
O632        C643   1.238       .  S
O633       Mg652   2.130       .  S
O634       Mg646   2.331       .  S
Mg635       O651   2.198       .  S
O636       Mg652   2.248       .  S
H637        C642   1.081       .  S
O638       Mg646   2.129       .  S
O638        C641   1.237       .  S
H639        C641   1.081       .  S
H640        C643   1.079       .  S
O645       Mg652   2.288       .  S
C648       C1219   1.472       .  S
C648        O653   1.272       .  A
O649        C650   1.269       .  A
C650       C1205   1.456       .  S
C655        C656   1.372   1_545  D
C655       C1149   1.508       .  S
C655       C1177   1.505       .  S
C656       C1121   1.512       .  S
C656       C1132   1.508       .  S
C657        C658   1.426       .  A
C657        C662   1.398       .  A
C657       C2577   1.495       .  S
C658        C659   1.427       .  A
C658        H663   1.082       .  S
C659        C660   1.398       .  A
C659       C1118   1.487       .  S
C660        C661   1.382       .  A
C660        H664   1.086       .  S
C661        C662   1.382       .  A
C661       C1104   1.450       .  S
C662        H665   1.086       .  S
C666        C667   1.404       .  A
C666        C671   1.430       .  A
C666       C1135   1.494       .  S
C667        C668   1.393       .  A
C667        H672   1.085       .  S
C668        C669   1.390       .  A
C668       C1090   1.485       .  S
C669        C670   1.397       .  A
C669        H673   1.084       .  S
C670        C671   1.426       .  A
C670       C2395   1.504       .  S
C671        H674   1.082       .  S
C675        C676   1.428       .  A
C675        C680   1.408       .  A
C675       C1065   1.511       .  S
C676        C677   1.425       .  A
C676        H681   1.082       .  S
C677        C678   1.395       .  A
C677       C2591   1.492       .  S
C678        C679   1.387       .  A
C678        H682   1.085       .  S
C679        C680   1.399       .  A
C679       C1076   1.479       .  S
C680        H683   1.084       .  S
C684        C685   1.426       .  A
C684        C689   1.394       .  A
C684       C1034   1.502       .  S
C685        C686   1.429       .  A
C685        H690   1.082       .  S
C686        C687   1.404       .  A
C686       C2325   1.492       .  S
C687        C688   1.389       .  A
C687        H691   1.085       .  S
C688        C689   1.381       .  A
C688       C1048   1.457       .  S
C689        H692   1.087       .  S
C693        C694   1.431       .  A
C693        C698   1.405       .  A
C693       C2017   1.519       .  S
C694        C695   1.432       .  A
C694        H699   1.082       .  S
C695        C696   1.400       .  A
C695       C2381   1.493       .  S
C696        C697   1.385       .  A
C696        H700   1.086       .  S
C697        C698   1.391       .  A
C697       C1020   1.474       .  S
C698        H701   1.081       .  S
C702        C703   1.428       .  A
C702        C707   1.403       .  A
C702       C2339   1.496       .  S
C703        C704   1.426       .  A
C703        H708   1.082       .  S
C704        C705   1.394       .  A
C704       C2031   1.498       .  S
C705        C706   1.384       .  A
C705        H709   1.083       .  S
C706        C707   1.392       .  A
C706       C1006   1.470       .  S
C707        H710   1.085       .  S
O711       Mg713   2.133       .  S
O711       Mg719   2.117       .  S
O711        C746   1.244       .  S
C712        H751   1.081       .  S
C712        O725   1.234       .  S
C712        O749   1.266       .  A
Mg713       O742   2.146       .  S
Mg713       O757   2.274       .  S
Mg713       O753   2.240       .  S
Mg713       O724   2.296       .  S
O714       Mg756   2.143       .  S
O714       Mg739   2.137       .  S
O714        C735   1.241       .  S
O715        C746   1.280       .  A
O715       Mg739   2.334       .  S
C716       C1009   1.471       .  S
C716        O718   1.261       .  A
C716        O730   1.253       .  A
O717        C745   1.273       .  A
O717       Mg719   2.309       .  S
O718       Mg750   2.314       .  S
Mg719       O725   2.094       .  S
Mg719       O733   2.220       .  S
Mg719       O721   2.253       .  S
C720       C1023   1.461       .  S
C720        O758   1.258       .  A
C720        O726   1.261       .  A
O721        C728   1.262       .  A
H722        C735   1.081       .  S
C723        H748   1.081       .  S
C723        O737   1.243       .  S
C723        O738   1.279       .  A
O724        C747   1.265       .  A
O725       Mg739   2.154       .  S
O726       Mg756   2.220       .  S
C727       C1093   1.478       .  S
C727        O740   1.263       .  A
C727        O732   1.270       .  A
C728       C1107   1.462       .  S
C728        O755   1.264       .  A
Mg729       O736   2.096       .  S
Mg729       O737   2.150       .  S
Mg729       O730   2.223       .  S
Mg729       O731   2.326       .  S
Mg729       O758   2.249       .  S
O731        C735   1.277       .  A
O732       Mg739   2.300       .  S
O733        C752   1.267       .  A
O734        C754   1.266       .  A
O734       Mg750   2.261       .  S
O736       Mg750   2.169       .  S
O736        C747   1.232       .  S
O737       Mg756   2.115       .  S
O738       Mg750   2.337       .  S
Mg739       O755   2.280       .  S
O740       Mg756   2.225       .  S
H741        C746   1.081       .  S
O742       Mg750   2.141       .  S
O742        C745   1.238       .  S
H743        C745   1.081       .  S
H744        C747   1.081       .  S
O749       Mg756   2.302       .  S
C752       C1079   1.476       .  S
C752        O757   1.268       .  A
O753        C754   1.266       .  A
C754       C1051   1.455       .  S
C759        C760   1.378   1_655  D
C759       C1037   1.517       .  S
C759       C1062   1.512       .  S
C760        C981   1.514       .  S
C760        C992   1.513       .  S
C761        C762   1.401       .  A
C761        C766   1.424       .  A
C761       C1443   1.490       .  S
C762        C763   1.394       .  A
C762        H767   1.085       .  S
C763        C764   1.389       .  A
C763        C964   1.484       .  S
C764        C765   1.404       .  A
C764        H768   1.084       .  S
C765        C766   1.421       .  A
C765       C2703   1.498       .  S
C766        H769   1.082       .  S
C770        C771   1.429       .  A
C770        C775   1.399       .  A
C770       C2406   1.495       .  S
C771        C772   1.428       .  A
C771        H776   1.082       .  S
C772        C773   1.395       .  A
C772       C1426   1.497       .  S
C773        C774   1.387       .  A
C773        H777   1.086       .  S
C774        C775   1.384       .  A
C774        C950   1.462       .  S
C775        H778   1.086       .  S
C779        C780   1.424       .  A
C779        C784   1.402       .  A
C779        C925   1.493       .  S
C780        C781   1.422       .  A
C780        H785   1.082       .  S
C781        C782   1.391       .  A
C781       C2770   1.490       .  S
C782        C783   1.392       .  A
C782        H786   1.085       .  S
C783        C784   1.397       .  A
C783        C936   1.475       .  S
C784        H787   1.085       .  S
C788        C789   1.430       .  A
C788        C793   1.403       .  A
C788        C995   1.491       .  S
C789        C790   1.425       .  A
C789        H794   1.082       .  S
C790        C791   1.397       .  A
C790       C2784   1.499       .  S
C791        C792   1.372       .  A
C791        H795   1.084       .  S
C792        C793   1.382       .  A
C792        C908   1.458       .  S
C793        H796   1.085       .  S
C797        C798   1.426       .  A
C797        C802   1.410       .  A
C797        C978   1.496       .  S
C798        C799   1.418       .  A
C798        H803   1.082       .  S
C799        C800   1.397       .  A
C799       C2686   1.507       .  S
C800        C801   1.398       .  A
C800        H804   1.076       .  S
C801        C802   1.402       .  A
C801        C894   1.501       .  S
C802        H805   1.082       .  S
C806        C807   1.435       .  A
C806        C811   1.407       .  A
C806        C866   1.529       .  S
C807        C808   1.426       .  A
C807        H812   1.074       .  S
C808        C809   1.393       .  A
C808       C2420   1.493       .  S
C809        C810   1.388       .  A
C809        H813   1.085       .  S
C810        C811   1.393       .  A
C810        C883   1.472       .  S
C811        H814   1.083       .  S
O815       Mg817   2.126       .  S
O815       Mg823   2.161       .  S
O815        C850   1.235       .  S
C816        H855   1.081       .  S
C816        O829   1.240       .  S
C816        O853   1.273       .  A
Mg817       O846   2.114       .  S
Mg817       O861   2.248       .  S
Mg817       O857   2.266       .  S
Mg817       O828   2.326       .  S
O818       Mg860   2.176       .  S
O818       Mg843   2.117       .  S
O818        C839   1.245       .  S
O819        C850   1.270       .  A
O819       Mg843   2.319       .  S
C820        C880   1.465       .  S
C820        O822   1.268       .  A
C820        O834   1.270       .  A
O821        C849   1.282       .  A
O821       Mg823   2.347       .  S
O822       Mg854   2.247       .  S
Mg823       O829   2.120       .  S
Mg823       O837   2.258       .  S
Mg823       O825   2.320       .  S
C824        C953   1.472       .  S
C824        O862   1.261       .  A
C824        O830   1.258       .  A
O825        C832   1.271       .  A
H826        C839   1.078       .  S
C827        H852   1.081       .  S
C827        O841   1.234       .  S
C827        O842   1.266       .  A
O828        C851   1.276       .  A
O829       Mg843   2.132       .  S
O830       Mg860   2.224       .  S
C831        C967   1.463       .  S
C831        O844   1.259       .  A
C831        O836   1.270       .  A
C832        C897   1.481       .  S
C832        O859   1.266       .  A
Mg833       O840   2.108       .  S
Mg833       O841   2.179       .  S
Mg833       O834   2.264       .  S
Mg833       O835   2.288       .  S
Mg833       O862   2.273       .  S
O835        C839   1.273       .  A
O836       Mg843   2.257       .  S
O837        C856   1.260       .  A
O838        C858   1.259       .  A
O838       Mg854   2.250       .  S
O840       Mg854   2.135       .  S
O840        C851   1.240       .  S
O841       Mg860   2.115       .  S
O842       Mg854   2.287       .  S
Mg843       O859   2.249       .  S
O844       Mg860   2.255       .  S
H845        C850   1.081       .  S
O846       Mg854   2.146       .  S
O846        C849   1.244       .  S
H847        C849   1.081       .  S
H848        C851   1.081       .  S
O853       Mg860   2.296       .  S
C856        C911   1.467       .  S
C856        O861   1.260       .  A
O857        C858   1.266       .  A
C858        C939   1.452       .  S
C863        C864   1.400   1_554  D
C863        C869   1.510       .  S
C863       C1793   1.524   1_554  S
C864        C922   1.522   1_556  S
C864       C1762   1.521       .  S
C865        C866   1.423       .  A
C865        C870   1.402       .  A
C865        H872   1.081       .  S
C866        C867   1.424       .  A
C867        C868   1.413       .  A
C867        N874   1.430       .  S
C868        C869   1.412       .  A
C868        H873   1.084       .  S
C869        C870   1.404       .  A
C870        N871   1.433       .  S
N871        H875   1.045       .  S
N871        H876   1.046       .  S
N874        H877   1.045       .  S
N874        H878   1.043       .  S
C879        C880   1.405       .  A
C879        C884   1.391       .  A
C879        H886   1.084       .  S
C880        C881   1.412       .  A
C881        C882   1.398       .  A
C881        N888   1.437       .  S
C882        C883   1.406       .  A
C882        H887   1.084       .  S
C883        C884   1.406       .  A
C884        N885   1.434       .  S
N885        H889   1.046       .  S
N885        H890   1.046       .  S
N888        H891   1.044       .  S
N888        H892   1.046       .  S
C893        C894   1.404       .  A
C893        C898   1.385       .  A
C893        H900   1.077       .  S
C894        C895   1.417       .  A
C895        C896   1.417       .  A
C895        N902   1.436       .  S
C896        C897   1.409       .  A
C896        H901   1.083       .  S
C897        C898   1.407       .  A
C898        N899   1.432       .  S
N899        H903   1.046       .  S
N899        H904   1.045       .  S
N902        H905   1.045       .  S
N902        H906   1.046       .  S
C907        C908   1.399       .  A
C907        C912   1.402       .  A
C907        H914   1.084       .  S
C908        C909   1.412       .  A
C909        C910   1.378       .  A
C909        N916   1.436       .  S
C910        C911   1.402       .  A
C910        H915   1.083       .  S
C911        C912   1.417       .  A
C912        N913   1.438       .  S
N913        H917   1.046       .  S
N913        H918   1.046       .  S
N916        H919   1.046       .  S
N916        H920   1.042       .  S
C921        C922   1.411       .  A
C921        C926   1.398       .  A
C921        H928   1.078   1_554  S
C922        C923   1.416       .  A
C923        C924   1.423       .  A
C923        N930   1.436       .  S
C924        C925   1.411       .  A
C924        H929   1.083       .  S
C925        C926   1.412       .  A
C926        N927   1.439       .  S
N927        H931   1.046       .  S
N927        H932   1.044       .  S
N930        H933   1.045       .  S
N930        H934   1.045       .  S
C935        C936   1.401       .  A
C935        C940   1.395       .  A
C935        H942   1.083       .  S
C936        C937   1.421       .  A
C937        C938   1.398       .  A
C937        N944   1.439       .  S
C938        C939   1.395       .  A
C938        H943   1.084       .  S
C939        C940   1.408       .  A
C940        N941   1.439       .  S
N941        H945   1.046       .  S
N941        H946   1.046       .  S
N944        H947   1.044       .  S
N944        H948   1.046       .  S
C949        C950   1.403       .  A
C949        C954   1.388       .  A
C949        H956   1.084       .  S
C950        C951   1.401       .  A
C951        C952   1.395       .  A
C951        N958   1.438       .  S
C952        C953   1.407       .  A
C952        H957   1.079       .  S
C953        C954   1.416       .  A
C954        N955   1.433       .  S
N955        H959   1.045       .  S
N955        H960   1.044       .  S
N958        H961   1.045       .  S
N958        H962   1.045       .  S
C963        C964   1.409       .  A
C963        C968   1.394       .  A
C963        H970   1.083       .  S
C964        C965   1.416       .  A
C965        C966   1.399       .  A
C965        N972   1.437       .  S
C966        C967   1.396       .  A
C966        H971   1.073       .  S
C967        C968   1.408       .  A
C968        N969   1.438       .  S
N969        H973   1.045       .  S
N969        H974   1.045       .  S
N972        H975   1.043       .  S
N972        H976   1.046       .  S
C977        C978   1.406       .  A
C977        C982   1.408       .  A
C977        H984   1.084       .  S
C978        C979   1.409       .  A
C979        C980   1.413       .  A
C979        N986   1.437       .  S
C980        C981   1.411       .  A
C980        H985   1.082       .  S
C981        C982   1.418       .  A
C982        N983   1.436       .  S
N983        H987   1.045       .  S
N983        H988   1.040       .  S
N986        H989   1.045       .  S
N986        H990   1.046       .  S
C991        C992   1.404       .  A
C991        C996   1.402       .  A
C991        H998   1.080       .  S
C992        C993   1.428       .  A
C993        C994   1.414       .  A
C993       N1000   1.437       .  S
C994        C995   1.403       .  A
C994        H999   1.084       .  S
C995        C996   1.412       .  A
C996        N997   1.439       .  S
N997       H1001   1.046       .  S
N997       H1002   1.045       .  S
N1000      H1003   1.040       .  S
N1000      H1004   1.045       .  S
C1005      C1006   1.405       .  A
C1005      C1010   1.406       .  A
C1005      H1012   1.084       .  S
C1006      C1007   1.414       .  A
C1007      C1008   1.381       .  A
C1007      N1014   1.437       .  S
C1008      C1009   1.402       .  A
C1008      H1013   1.083       .  S
C1009      C1010   1.414       .  A
C1010      N1011   1.438       .  S
N1011      H1015   1.046       .  S
N1011      H1016   1.046       .  S
N1014      H1017   1.046       .  S
N1014      H1018   1.042       .  S
C1019      C1020   1.412       .  A
C1019      C1024   1.396       .  A
C1019      H1026   1.082       .  S
C1020      C1021   1.408       .  A
C1021      C1022   1.395       .  A
C1021      N1028   1.437       .  S
C1022      C1023   1.406       .  A
C1022      H1027   1.083       .  S
C1023      C1024   1.402       .  A
C1024      N1025   1.439       .  S
N1025      H1029   1.046       .  S
N1025      H1030   1.044       .  S
N1028      H1031   1.044       .  S
N1028      H1032   1.046       .  S
C1033      C1034   1.408       .  A
C1033      C1038   1.401       .  A
C1033      H1040   1.085       .  S
C1034      C1035   1.422       .  A
C1035      C1036   1.415       .  A
C1035      N1042   1.437       .  S
C1036      C1037   1.409       .  A
C1036      H1041   1.081       .  S
C1037      C1038   1.421       .  A
C1038      N1039   1.438   1_655  S
N1039      H1043   1.044       .  S
N1039      H1044   1.041       .  S
N1042      H1045   1.041       .  S
N1042      H1046   1.046       .  S
C1047      C1048   1.401       .  A
C1047      C1052   1.403       .  A
C1047      H1054   1.084       .  S
C1048      C1049   1.409       .  A
C1049      C1050   1.381       .  A
C1049      N1056   1.436       .  S
C1050      C1051   1.400       .  A
C1050      H1055   1.085       .  S
C1051      C1052   1.415       .  A
C1052      N1053   1.438       .  S
N1053      H1057   1.046       .  S
N1053      H1058   1.044       .  S
N1056      H1059   1.044       .  S
N1056      H1060   1.046       .  S
C1061      C1062   1.400       .  A
C1061      C1066   1.402       .  A
C1061      H1068   1.081       .  S
C1062      C1063   1.424       .  A
C1063      C1064   1.419       .  A
C1063      N1070   1.436       .  S
C1064      C1065   1.409       .  A
C1064      H1069   1.083       .  S
C1065      C1066   1.425       .  A
C1066      N1067   1.441       .  S
N1067      H1071   1.046   1_655  S
N1067      H1072   1.043       .  S
N1070      H1073   1.042       .  S
N1070      H1074   1.045       .  S
C1075      C1076   1.402       .  A
C1075      C1080   1.400       .  A
C1075      H1082   1.084       .  S
C1076      C1077   1.418       .  A
C1077      C1078   1.393       .  A
C1077      N1084   1.438       .  S
C1078      C1079   1.400       .  A
C1078      H1083   1.084       .  S
C1079      C1080   1.417       .  A
C1080      N1081   1.438       .  S
N1081      H1085   1.046       .  S
N1081      H1086   1.044       .  S
N1084      H1087   1.045       .  S
N1084      H1088   1.046       .  S
C1089      C1090   1.403       .  A
C1089      C1094   1.400       .  A
C1089      H1096   1.083       .  S
C1090      C1091   1.417       .  A
C1091      C1092   1.399       .  A
C1091      N1098   1.433       .  S
C1092      C1093   1.401       .  A
C1092      H1097   1.084       .  S
C1093      C1094   1.416       .  A
C1094      N1095   1.436       .  S
N1095      H1099   1.046       .  S
N1095      H1100   1.045       .  S
N1098      H1101   1.046       .  S
N1098      H1102   1.046       .  S
C1103      C1104   1.401       .  A
C1103      C1108   1.405       .  A
C1103      H1110   1.084       .  S
C1104      C1105   1.410       .  A
C1105      C1106   1.380       .  A
C1105      N1112   1.442       .  S
C1106      C1107   1.399       .  A
C1106      H1111   1.078       .  S
C1107      C1108   1.410       .  A
C1108      N1109   1.437       .  S
N1109      H1113   1.046       .  S
N1109      H1114   1.045       .  S
N1112      H1115   1.041       .  S
N1112      H1116   1.046       .  S
C1117      C1118   1.401       .  A
C1117      C1122   1.409       .  A
C1117      H1124   1.084       .  S
C1118      C1119   1.418       .  A
C1119      C1120   1.404       .  A
C1119      N1126   1.438       .  S
C1120      C1121   1.404       .  A
C1120      H1125   1.081       .  S
C1121      C1122   1.426       .  A
C1122      N1123   1.435       .  S
N1123      H1127   1.045       .  S
N1123      H1128   1.037       .  S
N1126      H1129   1.044       .  S
N1126      H1130   1.046       .  S
C1131      C1132   1.407       .  A
C1131      C1136   1.420       .  A
C1131      H1138   1.083       .  S
C1132      C1133   1.412       .  A
C1133      C1134   1.404       .  A
C1133      N1140   1.432       .  S
C1134      C1135   1.404       .  A
C1134      H1139   1.084       .  S
C1135      C1136   1.414       .  A
C1136      N1137   1.436       .  S
N1137      H1141   1.046       .  S
N1137      H1142   1.045       .  S
N1140      H1143   1.045       .  S
N1140      H1144   1.045   1_565  S
C1145      C1146   1.407       .  A
C1145      C1150   1.416       .  A
C1145      H1152   1.084       .  S
C1146      C1147   1.416       .  A
C1147      C1148   1.401       .  A
C1147      N1154   1.439       .  S
C1148      C1149   1.406       .  A
C1148      H1153   1.082       .  S
C1149      C1150   1.412       .  A
C1150      N1151   1.436       .  S
N1151      H1155   1.045       .  S
N1151      H1156   1.044       .  S
N1154      H1157   1.044       .  S
N1154      H1158   1.046       .  S
C1159      C1160   1.400       .  A
C1159      C1164   1.396       .  A
C1159      H1166   1.084       .  S
C1160      C1161   1.408       .  A
C1161      C1162   1.397       .  A
C1161      N1168   1.433       .  S
C1162      C1163   1.402       .  A
C1162      H1167   1.084       .  S
C1163      C1164   1.410       .  A
C1164      N1165   1.433       .  S
N1165      H1169   1.046       .  S
N1165      H1170   1.046       .  S
N1168      H1171   1.046       .  S
N1168      H1172   1.046       .  S
C1173      C1174   1.401       .  A
C1173      C1178   1.409       .  A
C1173      H1180   1.084       .  S
C1174      C1175   1.418       .  A
C1175      C1176   1.400       .  A
C1175      N1182   1.437       .  S
C1176      C1177   1.400       .  A
C1176      H1181   1.083       .  S
C1177      C1178   1.424       .  A
C1178      N1179   1.434       .  S
N1179      H1183   1.045       .  S
N1179      H1184   1.037       .  S
N1182      H1185   1.045       .  S
N1182      H1186   1.044       .  S
C1187      C1188   1.397       .  A
C1187      C1192   1.381       .  A
C1187      H1194   1.079       .  S
C1188      C1189   1.409       .  A
C1189      C1190   1.401       .  A
C1189      N1196   1.432       .  S
C1190      C1191   1.405       .  A
C1190      H1195   1.084       .  S
C1191      C1192   1.413       .  A
C1192      N1193   1.443       .  S
N1193      H1197   1.046       .  S
N1193      H1198   1.041       .  S
N1196      H1199   1.046       .  S
N1196      H1200   1.045       .  S
C1201      C1202   1.403       .  A
C1201      C1206   1.409       .  A
C1201      H1208   1.083       .  S
C1202      C1203   1.413       .  A
C1203      C1204   1.390       .  A
C1203      N1210   1.440       .  S
C1204      C1205   1.395       .  A
C1204      H1209   1.085       .  S
C1205      C1206   1.406       .  A
C1206      N1207   1.431       .  S
N1207      H1211   1.045       .  S
N1207      H1212   1.045       .  S
N1210      H1213   1.045       .  S
N1210      H1214   1.046       .  S
C1215      C1216   1.403       .  A
C1215      C1220   1.403       .  A
C1215      H1222   1.084       .  S
C1216      C1217   1.419       .  A
C1217      C1218   1.392       .  A
C1217      N1224   1.441       .  S
C1218      C1219   1.401       .  A
C1218      H1223   1.084       .  S
C1219      C1220   1.411       .  A
C1220      N1221   1.437       .  S
N1221      H1225   1.046       .  S
N1221      H1226   1.045       .  S
N1224      H1227   1.046       .  S
N1224      H1228   1.046       .  S
C1229      C1230   1.400       .  A
C1229      C1234   1.385       .  A
C1229      H1236   1.085       .  S
C1230      C1231   1.406       .  A
C1231      C1232   1.403       .  A
C1231      N1238   1.437       .  S
C1232      C1233   1.405       .  A
C1232      H1237   1.084       .  S
C1233      C1234   1.416       .  A
C1234      N1235   1.435       .  S
N1235      H1239   1.043       .  S
N1235      H1240   1.045       .  S
N1238      H1241   1.045       .  S
N1238      H1242   1.046       .  S
C1243      C1244   1.403       .  A
C1243      C1248   1.395       .  A
C1243      H1250   1.083       .  S
C1244      C1245   1.413       .  A
C1245      C1246   1.400       .  A
C1245      N1252   1.434       .  S
C1246      C1247   1.396       .  A
C1246      H1251   1.084       .  S
C1247      C1248   1.405       .  A
C1248      N1249   1.431       .  S
N1249      H1253   1.045       .  S
N1249      H1254   1.044       .  S
N1252      H1255   1.046       .  S
N1252      H1256   1.046       .  S
C1257      C1258   1.421       .  A
C1257      C1262   1.422       .  A
C1257      H1264   1.083       .  S
C1258      C1259   1.425       .  A
C1259      C1260   1.398       .  A
C1259      N1266   1.431       .  S
C1260      C1261   1.407       .  A
C1260      H1265   1.081       .  S
C1261      C1262   1.417       .  A
C1262      N1263   1.436       .  S
N1263      H1267   1.046       .  S
N1263      H1268   1.043       .  S
N1266      H1269   1.044       .  S
N1266      H1270   1.043       .  S
C1271      C1272   1.405       .  A
C1271      C1276   1.394       .  A
C1271      H1278   1.075       .  S
C1272      C1273   1.420       .  A
C1273      C1274   1.415       .  A
C1273      N1280   1.431       .  S
C1274      C1275   1.408       .  A
C1274      H1279   1.083       .  S
C1275      C1276   1.416       .  A
C1276      N1277   1.441       .  S
N1277      H1281   1.046   1_554  S
N1277      H1282   1.044       .  S
N1280      H1283   1.046       .  S
N1280      H1284   1.044       .  S
C1285      C1286   1.404       .  A
C1285      C1290   1.396       .  A
C1285      H1292   1.080   1_655  S
C1286      C1287   1.417       .  A
C1287      C1288   1.413       .  A
C1287      N1294   1.430       .  S
C1288      C1289   1.409       .  A
C1288      H1293   1.084       .  S
C1289      C1290   1.417       .  A
C1290      N1291   1.439   1_655  S
N1291      H1295   1.046   1_455  S
N1291      H1296   1.045   1_455  S
N1294      H1297   1.044       .  S
N1294      H1298   1.045       .  S
C1299      C1300   1.394       .  A
C1299      C1304   1.394       .  A
C1299      H1306   1.084       .  S
C1300      C1301   1.426       .  A
C1301      C1302   1.427       .  A
C1301      N1308   1.436       .  S
C1302      C1303   1.414       .  A
C1302      H1307   1.082       .  S
C1303      C1304   1.428       .  A
C1304      N1305   1.435       .  S
N1305      H1309   1.045       .  S
N1305      H1310   1.043       .  S
N1308      H1311   1.044       .  S
N1308      H1312   1.045       .  S
C1313      C1314   1.409       .  A
C1313      C1318   1.423       .  A
C1313      H1320   1.083       .  S
C1314      C1315   1.413       .  A
C1315      C1316   1.402       .  A
C1315      N1322   1.439       .  S
C1316      C1317   1.402       .  A
C1316      H1321   1.079       .  S
C1317      C1318   1.415       .  A
C1318      N1319   1.436       .  S
N1319      H1323   1.045       .  S
N1319      H1324   1.045       .  S
N1322      H1325   1.045       .  S
N1322      H1326   1.045       .  S
C1327      C1328   1.396       .  A
C1327      C1332   1.382       .  A
C1327      H1334   1.085       .  S
C1328      C1329   1.405       .  A
C1329      C1330   1.393       .  A
C1329      N1336   1.433       .  S
C1330      C1331   1.398       .  A
C1330      H1335   1.085       .  S
C1331      C1332   1.413       .  A
C1332      N1333   1.439       .  S
N1333      H1337   1.046       .  S
N1333      H1338   1.044       .  S
N1336      H1339   1.045       .  S
N1336      H1340   1.046       .  S
C1341      C1342   1.409       .  A
C1341      C1346   1.422       .  A
C1341      H1348   1.083       .  S
C1342      C1343   1.423       .  A
C1343      C1344   1.403       .  A
C1343      N1350   1.438       .  S
C1344      C1345   1.403       .  A
C1344      H1349   1.083       .  S
C1345      C1346   1.414       .  A
C1346      N1347   1.430       .  S
N1347      H1351   1.045       .  S
N1347      H1352   1.045       .  S
N1350      H1353   1.044       .  S
N1350      H1354   1.046       .  S
C1355      C1356   1.407       .  A
C1355      C1360   1.384       .  A
C1355      H1362   1.085       .  S
C1356      C1357   1.401       .  A
C1357      C1358   1.400       .  A
C1357      N1364   1.438       .  S
C1358      C1359   1.411       .  A
C1358      H1363   1.084       .  S
C1359      C1360   1.407       .  A
C1360      N1361   1.434       .  S
N1361      H1365   1.044       .  S
N1361      H1366   1.046       .  S
N1364      H1367   1.044       .  S
N1364      H1368   1.046       .  S
C1369      C1370   1.405       .  A
C1369      C1374   1.404       .  A
C1369      H1376   1.084       .  S
C1370      C1371   1.421       .  A
C1371      C1372   1.387       .  A
C1371      N1378   1.436       .  S
C1372      C1373   1.399       .  A
C1372      H1377   1.085       .  S
C1373      C1374   1.415       .  A
C1374      N1375   1.437       .  S
N1375      H1379   1.046       .  S
N1375      H1380   1.044       .  S
N1378      H1381   1.046       .  S
N1378      H1382   1.043       .  S
C1383      C1384   1.398       .  A
C1383      C1388   1.379       .  A
C1383      H1390   1.085       .  S
C1384      C1385   1.404       .  A
C1385      C1386   1.399       .  A
C1385      N1392   1.436       .  S
C1386      C1387   1.399       .  A
C1386      H1391   1.084       .  S
C1387      C1388   1.409       .  A
C1388      N1389   1.440       .  S
N1389      H1393   1.046       .  S
N1389      H1394   1.041       .  S
N1392      H1395   1.045       .  S
N1392      H1396   1.046       .  S
C1397      C1398   1.407       .  A
C1397      C1402   1.390       .  A
C1397      H1404   1.081       .  S
C1398      C1399   1.414       .  A
C1399      C1400   1.405       .  A
C1399      N1406   1.437       .  S
C1400      C1401   1.404       .  A
C1400      H1405   1.083       .  S
C1401      C1402   1.409       .  A
C1402      N1403   1.434       .  S
N1403      H1407   1.046       .  S
N1403      H1408   1.046       .  S
N1406      H1409   1.045       .  S
N1406      H1410   1.046       .  S
C1411      C1412   1.401       .  A
C1411      C1416   1.405       .  A
C1411      H1418   1.084       .  S
C1412      C1413   1.418       .  A
C1413      C1414   1.392       .  A
C1413      N1420   1.439       .  S
C1414      C1415   1.395       .  A
C1414      H1419   1.084       .  S
C1415      C1416   1.419       .  A
C1416      N1417   1.438       .  S
N1417      H1421   1.046       .  S
N1417      H1422   1.044       .  S
N1420      H1423   1.046       .  S
N1420      H1424   1.045       .  S
C1425      C1426   1.407       .  A
C1425      C1430   1.417       .  A
C1425      H1432   1.083       .  S
C1426      C1427   1.423       .  A
C1427      C1428   1.401       .  A
C1427      N1434   1.440       .  S
C1428      C1429   1.403       .  A
C1428      H1433   1.084       .  S
C1429      C1430   1.424       .  A
C1430      N1431   1.437       .  S
N1431      H1435   1.045       .  S
N1431      H1436   1.044   1_565  S
N1434      H1437   1.044       .  S
N1434      H1438   1.046       .  S
C1439      C1440   1.403       .  A
C1439      C1444   1.406       .  A
C1439      H1446   1.084       .  S
C1440      C1441   1.413       .  A
C1441      C1442   1.410       .  A
C1441      N1448   1.432   1_565  S
C1442      C1443   1.405       .  A
C1442      H1447   1.084       .  S
C1443      C1444   1.421       .  A
C1444      N1445   1.438       .  S
N1445      H1449   1.045       .  S
N1445      H1450   1.044       .  S
N1448      H1451   1.046       .  S
N1448      H1452   1.045   1_545  S
C1453      C1454   1.406       .  A
C1453      C1458   1.412       .  A
C1453      H1460   1.083       .  S
C1454      C1455   1.421       .  A
C1455      C1456   1.418       .  A
C1455      N1462   1.431       .  S
C1456      C1457   1.407       .  A
C1456      H1461   1.083       .  S
C1457      C1458   1.423       .  A
C1458      N1459   1.438       .  S
N1459      H1463   1.046       .  S
N1459      H1464   1.045       .  S
N1462      H1465   1.045       .  S
N1462      H1466   1.045       .  S
C1467      C1468   1.411       .  A
C1467      C1472   1.421       .  A
C1467      H1474   1.083       .  S
C1468      C1469   1.413       .  A
C1469      C1470   1.390       .  A
C1469      N1476   1.439       .  S
C1470      C1471   1.404       .  A
C1470      H1475   1.078       .  S
C1471      C1472   1.424       .  A
C1472      N1473   1.437       .  S
N1473      H1477   1.045       .  S
N1473      H1478   1.043       .  S
N1476      H1479   1.045       .  S
N1476      H1480   1.046       .  S
C1481      C1482   1.418       .  A
C1481      C1486   1.413       .  A
C1481      H1488   1.083       .  S
C1482      C1483   1.421       .  A
C1483      C1484   1.402       .  A
C1483      N1490   1.427       .  S
C1484      C1485   1.406       .  A
C1484      H1489   1.085       .  S
C1485      C1486   1.411       .  A
C1486      N1487   1.436       .  S
N1487      H1491   1.045   1_554  S
N1487      H1492   1.044       .  S
N1490      H1493   1.041       .  S
N1490      H1494   1.044       .  S
C1495      C1496   1.402       .  A
C1495      C1500   1.407       .  A
C1495      H1502   1.083       .  S
C1496      C1497   1.422       .  A
C1497      C1498   1.410       .  A
C1497      N1504   1.437       .  S
C1498      C1499   1.402       .  A
C1498      H1503   1.084       .  S
C1499      C1500   1.421       .  A
C1500      N1501   1.437       .  S
N1501      H1505   1.045       .  S
N1501      H1506   1.045       .  S
N1504      H1507   1.038       .  S
N1504      H1508   1.045       .  S
C1509      C1510   1.416       .  A
C1509      C1514   1.401       .  A
C1509      H1516   1.073       .  S
C1510      C1511   1.423       .  A
C1511      C1512   1.424       .  A
C1511      N1518   1.438       .  S
C1512      C1513   1.423       .  A
C1512      H1517   1.081       .  S
C1513      C1514   1.412       .  A
C1514      N1515   1.431       .  S
N1515      H1519   1.046       .  S
N1515      H1520   1.046       .  S
N1518      H1521   1.040       .  S
N1518      H1522   1.045       .  S
C1523      C1524   1.389       .  A
C1523      C1528   1.387       .  A
C1523      H1530   1.085       .  S
C1524      C1525   1.416       .  A
C1525      C1526   1.404       .  A
C1525      N1532   1.439       .  S
C1526      C1527   1.404       .  A
C1526      H1531   1.084       .  S
C1527      C1528   1.422       .  A
C1528      N1529   1.430       .  S
N1529      H1533   1.045       .  S
N1529      H1534   1.046       .  S
N1532      H1535   1.042       .  S
N1532      H1536   1.046       .  S
C1537      C1538   1.402       .  A
C1537      C1542   1.410       .  A
C1537      H1544   1.084       .  S
C1538      C1539   1.421       .  A
C1539      C1540   1.417       .  A
C1539      N1546   1.438       .  S
C1540      C1541   1.403       .  A
C1540      H1545   1.083       .  S
C1541      C1542   1.419       .  A
C1542      N1543   1.430       .  S
N1543      H1547   1.045       .  S
N1543      H1548   1.045       .  S
N1546      H1549   1.044       .  S
N1546      H1550   1.046       .  S
C1551      C1552   1.402       .  A
C1551      C1556   1.410       .  A
C1551      H1558   1.083       .  S
C1552      C1553   1.412       .  A
C1553      C1554   1.383       .  A
C1553      N1560   1.440       .  S
C1554      C1555   1.396       .  A
C1554      H1559   1.085       .  S
C1555      C1556   1.410       .  A
C1556      N1557   1.436       .  S
N1557      H1561   1.046       .  S
N1557      H1562   1.045       .  S
N1560      H1563   1.044       .  S
N1560      H1564   1.046       .  S
C1565      C1566   1.405       .  A
C1565      C1570   1.395       .  A
C1565      H1572   1.085       .  S
C1566      C1567   1.409       .  A
C1567      C1568   1.396       .  A
C1567      N1574   1.434       .  S
C1568      C1569   1.407       .  A
C1568      H1573   1.084       .  S
C1569      C1570   1.411       .  A
C1570      N1571   1.438       .  S
N1571      H1575   1.046       .  S
N1571      H1576   1.044       .  S
N1574      H1577   1.043       .  S
N1574      H1578   1.046       .  S
C1579      C1580   1.398       .  A
C1579      C1584   1.402       .  A
C1579      H1586   1.084       .  S
C1580      C1581   1.404       .  A
C1581      C1582   1.385       .  A
C1581      N1588   1.438       .  S
C1582      C1583   1.397       .  A
C1582      H1587   1.085       .  S
C1583      C1584   1.409       .  A
C1584      N1585   1.437       .  S
N1585      H1589   1.046       .  S
N1585      H1590   1.045       .  S
N1588      H1591   1.045       .  S
N1588      H1592   1.046       .  S
C1593      C1594   1.407       .  A
C1593      C1598   1.409       .  A
C1593      H1600   1.084       .  S
C1594      C1595   1.424       .  A
C1595      C1596   1.409       .  A
C1595      N1602   1.438       .  S
C1596      C1597   1.403       .  A
C1596      H1601   1.084       .  S
C1597      C1598   1.412       .  A
C1598      N1599   1.432       .  S
N1599      H1603   1.045       .  S
N1599      H1604   1.045       .  S
N1602      H1605   1.043       .  S
N1602      H1606   1.046       .  S
C1607      C1608   1.410       .  A
C1607      C1612   1.393       .  A
C1607      H1614   1.083       .  S
C1608      C1609   1.411       .  A
C1609      C1610   1.397       .  A
C1609      N1616   1.437       .  S
C1610      C1611   1.409       .  A
C1610      H1615   1.084       .  S
C1611      C1612   1.406       .  A
C1612      N1613   1.438       .  S
N1613      H1617   1.046       .  S
N1613      H1618   1.045       .  S
N1616      H1619   1.044       .  S
N1616      H1620   1.046       .  S
C1621      C1622   1.407       .  A
C1621      C1626   1.404       .  A
C1621      H1628   1.085       .  S
C1622      C1623   1.424       .  A
C1623      C1624   1.414       .  A
C1623      N1630   1.437       .  S
C1624      C1625   1.408       .  A
C1624      H1629   1.084       .  S
C1625      C1626   1.423       .  A
C1626      N1627   1.438   1_556  S
N1627      H1631   1.046       .  S
N1627      H1632   1.038       .  S
N1630      H1633   1.040       .  S
N1630      H1634   1.045       .  S
C1635      C1636   1.398       .  A
C1635      C1640   1.376       .  A
C1635      H1642   1.084       .  S
C1636      C1637   1.409       .  A
C1637      C1638   1.407       .  A
C1637      N1644   1.436       .  S
C1638      C1639   1.402       .  A
C1638      H1643   1.084       .  S
C1639      C1640   1.416       .  A
C1640      N1641   1.442       .  S
N1641      H1645   1.046       .  S
N1641      H1646   1.037       .  S
N1644      H1647   1.045       .  S
N1644      H1648   1.046       .  S
C1649      C1650   1.410       .  A
C1649      C1654   1.415       .  A
C1649      H1656   1.083       .  S
C1650      C1651   1.408       .  A
C1651      C1652   1.410       .  A
C1651      N1658   1.437       .  S
C1652      C1653   1.413       .  A
C1652      H1657   1.085       .  S
C1653      C1654   1.417       .  A
C1654      N1655   1.436       .  S
N1655      H1659   1.046       .  S
N1655      H1660   1.045       .  S
N1658      H1661   1.045       .  S
N1658      H1662   1.046       .  S
C1663      C1664   1.410       .  A
C1663      C1668   1.424       .  A
C1663      H1670   1.083       .  S
C1664      C1665   1.420       .  A
C1665      C1666   1.401       .  A
C1665      N1672   1.438       .  S
C1666      C1667   1.406       .  A
C1666      H1671   1.081       .  S
C1667      C1668   1.418       .  A
C1668      N1669   1.436       .  S
N1669      H1673   1.045       .  S
N1669      H1674   1.045       .  S
N1672      H1675   1.044       .  S
N1672      H1676   1.046       .  S
C1677      C1678   1.394       .  A
C1677      C1682   1.384       .  A
C1677      H1684   1.085       .  S
C1678      C1679   1.411       .  A
C1679      C1680   1.403       .  A
C1679      N1686   1.430       .  S
C1680      C1681   1.403       .  A
C1680      H1685   1.084       .  S
C1681      C1682   1.411       .  A
C1682      N1683   1.424       .  S
N1683      H1687   1.046       .  S
N1683      H1688   1.046       .  S
N1686      H1689   1.046       .  S
N1686      H1690   1.045       .  S
C1691      C1692   1.396       .  A
C1691      C1696   1.386       .  A
C1691      H1698   1.085       .  S
C1692      C1693   1.403       .  A
C1693      C1694   1.400       .  A
C1693      N1700   1.437       .  S
C1694      C1695   1.402       .  A
C1694      H1699   1.084       .  S
C1695      C1696   1.408       .  A
C1696      N1697   1.440       .  S
N1697      H1701   1.046       .  S
N1697      H1702   1.046       .  S
N1700      H1703   1.045       .  S
N1700      H1704   1.046       .  S
C1705      C1706   1.407       .  A
C1705      C1710   1.415       .  A
C1705      H1712   1.084       .  S
C1706      C1707   1.420       .  A
C1707      C1708   1.409       .  A
C1707      N1714   1.438       .  S
C1708      C1709   1.406       .  A
C1708      H1713   1.080       .  S
C1709      C1710   1.424       .  A
C1710      N1711   1.438       .  S
N1711      H1715   1.046       .  S
N1711      H1716   1.042   1_565  S
N1714      H1717   1.044       .  S
N1714      H1718   1.046       .  S
C1719      C1720   1.399       .  A
C1719      C1724   1.384       .  A
C1719      H1726   1.079       .  S
C1720      C1721   1.425       .  A
C1721      C1722   1.418       .  A
C1721      N1728   1.437       .  S
C1722      C1723   1.407       .  A
C1722      H1727   1.083       .  S
C1723      C1724   1.396       .  A
C1724      N1725   1.414       .  S
N1725      H1729   1.046       .  S
N1725      H1730   1.037       .  S
N1728      H1731   1.046       .  S
N1728      H1732   1.046       .  S
C1733      C1734   1.405       .  A
C1733      C1738   1.414       .  A
C1733      H1740   1.083       .  S
C1734      C1735   1.424       .  A
C1735      C1736   1.410       .  A
C1735      N1742   1.438       .  S
C1736      C1737   1.403       .  A
C1736      H1741   1.083       .  S
C1737      C1738   1.414       .  A
C1738      N1739   1.430       .  S
N1739      H1743   1.045       .  S
N1739      H1744   1.046       .  S
N1742      H1745   1.045       .  S
N1742      H1746   1.046       .  S
C1747      C1748   1.397       .  A
C1747      C1752   1.396       .  A
C1747      H1754   1.084       .  S
C1748      C1749   1.420       .  A
C1749      C1750   1.385       .  A
C1749      N1756   1.430       .  S
C1750      C1751   1.385       .  A
C1750      H1755   1.085       .  S
C1751      C1752   1.418       .  A
C1752      N1753   1.438       .  S
N1753      H1757   1.045       .  S
N1753      H1758   1.043       .  S
N1756      H1759   1.045       .  S
N1756      H1760   1.046       .  S
C1761      C1762   1.414       .  A
C1761      C1766   1.427       .  A
C1761      H1768   1.084       .  S
C1762      C1763   1.416       .  A
C1763      C1764   1.404       .  A
C1763      N1770   1.435       .  S
C1764      C1765   1.419       .  A
C1764      H1769   1.080       .  S
C1765      C1766   1.423       .  A
C1766      N1767   1.435       .  S
N1767      H1771   1.046       .  S
N1767      H1772   1.046       .  S
N1770      H1773   1.035       .  S
N1770      H1774   1.045       .  S
C1775      C1776   1.405       .  A
C1775      C1780   1.405       .  A
C1775      H1782   1.084       .  S
C1776      C1777   1.416       .  A
C1777      C1778   1.394       .  A
C1777      N1784   1.433       .  S
C1778      C1779   1.401       .  A
C1778      H1783   1.084       .  S
C1779      C1780   1.413       .  A
C1780      N1781   1.437       .  S
N1781      H1785   1.046       .  S
N1781      H1786   1.045       .  S
N1784      H1787   1.046       .  S
N1784      H1788   1.046       .  S
C1789      C1790   1.393       .  A
C1789      C1794   1.398       .  A
C1789      H1796   1.085       .  S
C1790      C1791   1.425       .  A
C1791      C1792   1.416       .  A
C1791      N1798   1.437       .  S
C1792      C1793   1.407       .  A
C1792      H1797   1.083       .  S
C1793      C1794   1.435       .  A
C1794      N1795   1.432       .  S
N1795      H1799   1.043   1_556  S
N1795      H1800   1.038   1_556  S
N1798      H1801   1.045       .  S
N1798      H1802   1.046       .  S
C1803      C1804   1.406       .  A
C1803      C1808   1.393       .  A
C1803      H1810   1.084       .  S
C1804      C1805   1.407       .  A
C1805      C1806   1.393       .  A
C1805      N1812   1.439       .  S
C1806      C1807   1.400       .  A
C1806      H1811   1.085       .  S
C1807      C1808   1.400       .  A
C1808      N1809   1.437       .  S
N1809      H1813   1.046       .  S
N1809      H1814   1.046       .  S
N1812      H1815   1.046       .  S
N1812      H1816   1.046       .  S
C1817      C1818   1.400       .  A
C1817      C1822   1.406       .  A
C1817      H1824   1.084       .  S
C1818      C1819   1.418       .  A
C1819      C1820   1.385       .  A
C1819      N1826   1.432       .  S
C1820      C1821   1.391       .  A
C1820      H1825   1.085       .  S
C1821      C1822   1.423       .  A
C1822      N1823   1.438       .  S
N1823      H1827   1.045       .  S
N1823      H1828   1.041       .  S
N1826      H1829   1.045       .  S
N1826      H1830   1.045       .  S
C1831      C1832   1.402       .  A
C1831      C1836   1.391       .  A
C1831      H1838   1.085       .  S
C1832      C1833   1.407       .  A
C1833      C1834   1.391       .  A
C1833      N1840   1.438       .  S
C1834      C1835   1.400       .  A
C1834      H1839   1.084       .  S
C1835      C1836   1.400       .  A
C1836      N1837   1.438       .  S
N1837      H1841   1.046       .  S
N1837      H1842   1.046       .  S
N1840      H1843   1.044       .  S
N1840      H1844   1.046       .  S
C1845      C1846   1.407       .  A
C1845      C1850   1.412       .  A
C1845      H1852   1.084       .  S
C1846      C1847   1.419       .  A
C1847      C1848   1.401       .  A
C1847      N1854   1.431       .  S
C1848      C1849   1.399       .  A
C1848      H1853   1.082       .  S
C1849      C1850   1.410       .  A
C1850      N1851   1.431       .  S
N1851      H1855   1.045       .  S
N1851      H1856   1.045       .  S
N1854      H1857   1.045       .  S
N1854      H1858   1.042       .  S
C1859      C1860   1.406       .  A
C1859      C1864   1.405       .  A
C1859      H1866   1.084       .  S
C1860      C1861   1.414       .  A
C1861      C1862   1.382       .  A
C1861      N1868   1.435       .  S
C1862      C1863   1.404       .  A
C1862      H1867   1.085       .  S
C1863      C1864   1.422       .  A
C1864      N1865   1.438       .  S
N1865      H1869   1.046       .  S
N1865      H1870   1.039       .  S
N1868      H1871   1.042       .  S
N1868      H1872   1.044       .  S
C1873      C1874   1.411       .  A
C1873      C1878   1.399       .  A
C1873      H1880   1.084       .  S
C1874      C1875   1.424       .  A
C1875      C1876   1.418       .  A
C1875      N1882   1.438       .  S
C1876      C1877   1.412       .  A
C1876      H1881   1.082       .  S
C1877      C1878   1.420       .  A
C1878      N1879   1.436   1_655  S
N1879      H1883   1.045       .  S
N1879      H1884   1.038       .  S
N1882      H1885   1.041       .  S
N1882      H1886   1.046       .  S
C1887      C1888   1.406       .  A
C1887      C1892   1.391       .  A
C1887      H1894   1.083       .  S
C1888      C1889   1.410       .  A
C1889      C1890   1.402       .  A
C1889      N1896   1.432       .  S
C1890      C1891   1.402       .  A
C1890      H1895   1.084       .  S
C1891      C1892   1.415       .  A
C1892      N1893   1.440       .  S
N1893      H1897   1.046       .  S
N1893      H1898   1.040       .  S
N1896      H1899   1.045       .  S
N1896      H1900   1.046       .  S
C1901      C1902   1.414       .  A
C1901      C1906   1.425       .  A
C1901      H1908   1.083       .  S
C1902      C1903   1.414       .  A
C1903      C1904   1.398       .  A
C1903      N1910   1.434       .  S
C1904      C1905   1.415       .  A
C1904      H1909   1.083       .  S
C1905      C1906   1.427       .  A
C1906      N1907   1.435       .  S
N1907      H1911   1.045       .  S
N1907      H1912   1.041       .  S
N1910      H1913   1.044       .  S
N1910      H1914   1.043       .  S
C1915      C1916   1.404       .  A
C1915      C1920   1.391       .  A
C1915      H1922   1.084       .  S
C1916      C1917   1.414       .  A
C1917      C1918   1.399       .  A
C1917      N1924   1.438       .  S
C1918      C1919   1.406       .  A
C1918      H1923   1.084       .  S
C1919      C1920   1.412       .  A
C1920      N1921   1.438       .  S
N1921      H1925   1.045       .  S
N1921      H1926   1.043       .  S
N1924      H1927   1.044       .  S
N1924      H1928   1.046       .  S
C1929      C1930   1.408       .  A
C1929      C1934   1.403       .  A
C1929      H1936   1.083       .  S
C1930      C1931   1.420       .  A
C1931      C1932   1.409       .  A
C1931      N1938   1.435       .  S
C1932      C1933   1.405       .  A
C1932      H1937   1.084       .  S
C1933      C1934   1.418       .  A
C1934      N1935   1.437       .  S
N1935      H1939   1.046       .  S
N1935      H1940   1.045       .  S
N1938      H1941   1.043       .  S
N1938      H1942   1.045       .  S
C1943      C1944   1.403       .  A
C1943      C1948   1.398       .  A
C1943      H1950   1.084       .  S
C1944      C1945   1.405       .  A
C1945      C1946   1.392       .  A
C1945      N1952   1.433       .  S
C1946      C1947   1.399       .  A
C1946      H1951   1.085       .  S
C1947      C1948   1.407       .  A
C1948      N1949   1.438       .  S
N1949      H1953   1.046       .  S
N1949      H1954   1.046       .  S
N1952      H1955   1.045       .  S
N1952      H1956   1.045       .  S
C1957      C1958   1.403       .  A
C1957      C1962   1.400       .  A
C1957      H1964   1.084       .  S
C1958      C1959   1.418       .  A
C1959      C1960   1.414       .  A
C1959      N1966   1.437       .  S
C1960      C1961   1.409       .  A
C1960      H1965   1.084       .  S
C1961      C1962   1.418       .  A
C1962      N1963   1.438       .  S
N1963      H1967   1.046       .  S
N1963      H1968   1.044       .  S
N1966      H1969   1.044       .  S
N1966      H1970   1.046       .  S
C1971      C1972   1.407       .  A
C1971      C1976   1.421       .  A
C1971      H1978   1.081       .  S
C1972      C1973   1.424       .  A
C1973      C1974   1.405       .  A
C1973      N1980   1.438       .  S
C1974      C1975   1.410       .  A
C1974      H1979   1.081       .  S
C1975      C1976   1.430       .  A
C1976      N1977   1.429       .  S
N1977      H1981   1.045       .  S
N1977      H1982   1.045       .  S
N1980      H1983   1.045       .  S
N1980      H1984   1.046       .  S
C1985      C1986   1.408       .  A
C1985      C1990   1.410       .  A
C1985      H1992   1.084       .  S
C1986      C1987   1.417       .  A
C1987      C1988   1.409       .  A
C1987      N1994   1.438       .  S
C1988      C1989   1.407       .  A
C1988      H1993   1.084       .  S
C1989      C1990   1.418       .  A
C1990      N1991   1.438       .  S
N1991      H1995   1.046       .  S
N1991      H1996   1.043       .  S
N1994      H1997   1.044       .  S
N1994      H1998   1.045       .  S
C1999      C2000   1.411       .  A
C1999      C2004   1.416       .  A
C1999      H2006   1.083       .  S
C2000      C2001   1.410       .  A
C2001      C2002   1.405       .  A
C2001      N2008   1.432       .  S
C2002      C2003   1.409       .  A
C2002      H2007   1.081       .  S
C2003      C2004   1.418       .  A
C2004      N2005   1.436       .  S
N2005      H2009   1.045       .  S
N2005      H2010   1.045       .  S
N2008      H2011   1.045       .  S
N2008      H2012   1.046       .  S
C2013      C2014   1.405       .  A
C2013      C2018   1.403       .  A
C2013      H2020   1.083       .  S
C2014      C2015   1.425       .  A
C2015      C2016   1.420       .  A
C2015      N2022   1.430       .  S
C2016      C2017   1.405       .  A
C2016      H2021   1.083       .  S
C2017      C2018   1.423       .  A
C2018      N2019   1.435       .  S
N2019      H2023   1.046       .  S
N2019      H2024   1.046       .  S
N2022      H2025   1.045   1_554  S
N2022      H2026   1.045       .  S
C2027      C2028   1.409       .  A
C2027      C2032   1.402       .  A
C2027      H2034   1.083   1_554  S
C2028      C2029   1.423       .  A
C2029      C2030   1.415       .  A
C2029      N2036   1.437       .  S
C2030      C2031   1.407       .  A
C2030      H2035   1.084       .  S
C2031      C2032   1.419       .  A
C2032      N2033   1.438       .  S
N2033      H2037   1.046       .  S
N2033      H2038   1.045       .  S
N2036      H2039   1.043       .  S
N2036      H2040   1.045       .  S
C2041      C2042   1.404       .  A
C2041      C2046   1.407       .  A
C2041      H2048   1.084       .  S
C2042      C2043   1.418       .  A
C2043      C2044   1.410       .  A
C2043      N2050   1.437       .  S
C2044      C2045   1.404       .  A
C2044      H2049   1.083       .  S
C2045      C2046   1.415       .  A
C2046      N2047   1.437       .  S
N2047      H2051   1.045       .  S
N2047      H2052   1.040   1_565  S
N2050      H2053   1.044       .  S
N2050      H2054   1.045       .  S
C2055      C2056   1.404       .  A
C2055      C2060   1.403       .  A
C2055      H2062   1.084       .  S
C2056      C2057   1.402       .  A
C2057      C2058   1.384       .  A
C2057      N2064   1.434       .  S
C2058      C2059   1.401       .  A
C2058      H2063   1.085       .  S
C2059      C2060   1.416       .  A
C2060      N2061   1.437       .  S
N2061      H2065   1.046       .  S
N2061      H2066   1.042       .  S
N2064      H2067   1.046       .  S
N2064      H2068   1.046       .  S
C2069      C2070   1.404       .  A
C2069      C2074   1.421       .  A
C2069      H2076   1.083       .  S
C2070      C2071   1.418       .  A
C2071      C2072   1.405       .  A
C2071      N2078   1.435       .  S
C2072      C2073   1.405       .  A
C2072      H2077   1.080       .  S
C2073      C2074   1.425       .  A
C2074      N2075   1.431   1_565  S
N2075      H2079   1.045       .  S
N2075      H2080   1.045       .  S
N2078      H2081   1.045       .  S
N2078      H2082   1.046       .  S
C2083      C2084   1.406       .  A
C2083      C2088   1.385       .  A
C2083      H2090   1.078       .  S
C2084      C2085   1.396       .  A
C2085      C2086   1.401       .  A
C2085      N2092   1.436       .  S
C2086      C2087   1.413       .  A
C2086      H2091   1.084       .  S
C2087      C2088   1.405       .  A
C2088      N2089   1.438       .  S
N2089      H2093   1.045       .  S
N2089      H2094   1.041       .  S
N2092      H2095   1.046       .  S
N2092      H2096   1.046       .  S
C2097      C2098   1.403       .  A
C2097      C2102   1.410       .  A
C2097      H2104   1.084       .  S
C2098      C2099   1.422       .  A
C2099      C2100   1.405       .  A
C2099      N2106   1.439       .  S
C2100      C2101   1.405       .  A
C2100      H2105   1.084   1_655  S
C2101      C2102   1.414       .  A
C2102      N2103   1.430       .  S
N2103      H2107   1.045       .  S
N2103      H2108   1.046       .  S
N2106      H2109   1.043       .  S
N2106      H2110   1.046   1_655  S
C2111      C2112   1.405       .  A
C2111      C2116   1.403       .  A
C2111      H2118   1.084       .  S
C2112      C2113   1.409       .  A
C2113      C2114   1.395       .  A
C2113      N2120   1.440       .  S
C2114      C2115   1.403       .  A
C2114      H2119   1.077       .  S
C2115      C2116   1.416       .  A
C2116      N2117   1.437       .  S
N2117      H2121   1.045       .  S
N2117      H2122   1.042       .  S
N2120      H2123   1.046       .  S
N2120      H2124   1.046       .  S
C2125      C2126   1.409       .  A
C2125      C2130   1.402       .  A
C2125      H2132   1.085       .  S
C2126      C2127   1.416       .  A
C2127      C2128   1.413       .  A
C2127      N2134   1.436       .  S
C2128      C2129   1.409       .  A
C2128      H2133   1.082       .  S
C2129      C2130   1.410       .  A
C2130      N2131   1.437       .  S
N2131      H2135   1.045       .  S
N2131      H2136   1.045       .  S
N2134      H2137   1.044       .  S
N2134      H2138   1.046       .  S
C2139      C2140   1.405       .  A
C2139      C2144   1.390       .  A
C2139      H2146   1.083       .  S
C2140      C2141   1.413       .  A
C2141      C2142   1.397       .  A
C2141      N2148   1.432       .  S
C2142      C2143   1.400       .  A
C2142      H2147   1.084       .  S
C2143      C2144   1.415       .  A
C2144      N2145   1.434       .  S
N2145      H2149   1.045       .  S
N2145      H2150   1.042       .  S
N2148      H2151   1.046       .  S
N2148      H2152   1.045       .  S
C2153      C2154   1.404       .  A
C2153      C2158   1.402       .  A
C2153      H2160   1.084       .  S
C2154      C2155   1.415       .  A
C2155      C2156   1.415       .  A
C2155      N2162   1.436       .  S
C2156      C2157   1.417       .  A
C2156      H2161   1.083       .  S
C2157      C2158   1.418       .  A
C2158      N2159   1.431       .  S
N2159      H2163   1.045       .  S
N2159      H2164   1.046       .  S
N2162      H2165   1.044       .  S
N2162      H2166   1.045       .  S
C2167      C2168   1.410       .  A
C2167      C2172   1.389       .  A
C2167      H2174   1.080       .  S
C2168      C2169   1.413       .  A
C2169      C2170   1.405       .  A
C2169      N2176   1.437       .  S
C2170      C2171   1.405       .  A
C2170      H2175   1.084       .  S
C2171      C2172   1.409       .  A
C2172      N2173   1.432       .  S
N2173      H2177   1.042       .  S
N2173      H2178   1.045       .  S
N2176      H2179   1.045       .  S
N2176      H2180   1.046       .  S
C2181      C2182   1.404       .  A
C2181      C2186   1.411       .  A
C2181      H2188   1.084       .  S
C2182      C2183   1.419       .  A
C2183      C2184   1.402       .  A
C2183      N2190   1.438       .  S
C2184      C2185   1.402       .  A
C2184      H2189   1.084       .  S
C2185      C2186   1.426       .  A
C2186      N2187   1.439       .  S
N2187      H2191   1.046       .  S
N2187      H2192   1.042       .  S
N2190      H2193   1.045       .  S
N2190      H2194   1.046       .  S
C2195      C2196   1.404       .  A
C2195      C2200   1.412       .  A
C2195      H2202   1.083       .  S
C2196      C2197   1.415       .  A
C2197      C2198   1.392       .  A
C2197      N2204   1.441       .  S
C2198      C2199   1.398       .  A
C2198      H2203   1.080       .  S
C2199      C2200   1.413       .  A
C2200      N2201   1.437       .  S
N2201      H2205   1.046       .  S
N2201      H2206   1.045       .  S
N2204      H2207   1.046       .  S
N2204      H2208   1.046       .  S
C2209      C2210   1.407       .  A
C2209      C2214   1.410       .  A
C2209      H2216   1.084       .  S
C2210      C2211   1.417       .  A
C2211      C2212   1.405       .  A
C2211      N2218   1.436       .  S
C2212      C2213   1.403       .  A
C2212      H2217   1.084       .  S
C2213      C2214   1.419       .  A
C2214      N2215   1.437       .  S
N2215      H2219   1.046       .  S
N2215      H2220   1.044       .  S
N2218      H2221   1.044       .  S
N2218      H2222   1.045       .  S
C2223      C2224   1.409       .  A
C2223      C2228   1.402       .  A
C2223      H2230   1.082       .  S
C2224      C2225   1.422       .  A
C2225      C2226   1.418       .  A
C2225      N2232   1.436       .  S
C2226      C2227   1.410       .  A
C2226      H2231   1.081       .  S
C2227      C2228   1.425       .  A
C2228      N2229   1.438       .  S
N2229      H2233   1.046       .  S
N2229      H2234   1.044       .  S
N2232      H2235   1.045       .  S
N2232      H2236   1.046       .  S
C2237      C2238   1.409       .  A
C2237      C2242   1.420       .  A
C2237      H2244   1.083       .  S
C2238      C2239   1.418       .  A
C2239      C2240   1.407       .  A
C2239      N2246   1.431       .  S
C2240      C2241   1.403       .  A
C2240      H2245   1.084       .  S
C2241      C2242   1.415       .  A
C2242      N2243   1.436       .  S
N2243      H2247   1.046       .  S
N2243      H2248   1.045       .  S
N2246      H2249   1.046       .  S
N2246      H2250   1.046       .  S
C2251      C2252   1.403       .  A
C2251      C2256   1.410       .  A
C2251      H2258   1.083       .  S
C2252      C2253   1.425       .  A
C2253      C2254   1.422       .  A
C2253      N2260   1.436       .  S
C2254      C2255   1.403       .  A
C2254      H2259   1.083       .  S
C2255      C2256   1.423       .  A
C2256      N2257   1.438       .  S
N2257      H2261   1.046       .  S
N2257      H2262   1.045       .  S
N2260      H2263   1.045       .  S
N2260      H2264   1.046       .  S
C2265      C2266   1.406       .  A
C2265      C2270   1.404       .  A
C2265      H2272   1.084       .  S
C2266      C2267   1.413       .  A
C2267      C2268   1.415       .  A
C2267      N2274   1.436       .  S
C2268      C2269   1.407       .  A
C2268      H2273   1.084       .  S
C2269      C2270   1.417       .  A
C2270      N2271   1.439       .  S
N2271      H2275   1.046       .  S
N2271      H2276   1.044       .  S
N2274      H2277   1.045       .  S
N2274      H2278   1.045       .  S
C2279      C2280   1.401       .  A
C2279      C2284   1.405       .  A
C2279      H2286   1.084       .  S
C2280      C2281   1.412       .  A
C2281      C2282   1.409       .  A
C2281      N2288   1.431       .  S
C2282      C2283   1.403       .  A
C2282      H2287   1.084       .  S
C2283      C2284   1.421       .  A
C2284      N2285   1.438       .  S
N2285      H2289   1.045       .  S
N2285      H2290   1.044       .  S
N2288      H2291   1.045       .  S
N2288      H2292   1.045       .  S
C2293      C2294   1.409       .  A
C2293      C2298   1.407       .  A
C2293      H2300   1.083       .  S
C2294      C2295   1.415       .  A
C2295      C2296   1.407       .  A
C2295      N2302   1.432       .  S
C2296      C2297   1.407       .  A
C2296      H2301   1.084       .  S
C2297      C2298   1.417       .  A
C2298      N2299   1.438       .  S
N2299      H2303   1.046       .  S
N2299      H2304   1.044       .  S
N2302      H2305   1.044       .  S
N2302      H2306   1.044       .  S
C2307      C2308   1.403       .  A
C2307      C2312   1.408       .  A
C2307      H2314   1.084       .  S
C2308      C2309   1.413       .  A
C2309      C2310   1.408       .  A
C2309      N2316   1.432       .  S
C2310      C2311   1.403       .  A
C2310      H2315   1.084       .  S
C2311      C2312   1.422       .  A
C2312      N2313   1.438       .  S
N2313      H2317   1.046       .  S
N2313      H2318   1.044       .  S
N2316      H2319   1.045       .  S
N2316      H2320   1.045       .  S
C2321      C2322   1.408       .  A
C2321      C2326   1.410       .  A
C2321      H2328   1.083       .  S
C2322      C2323   1.418       .  A
C2323      C2324   1.407       .  A
C2323      N2330   1.436       .  S
C2324      C2325   1.406       .  A
C2324      H2329   1.084       .  S
C2325      C2326   1.418       .  A
C2326      N2327   1.438       .  S
N2327      H2331   1.046       .  S
N2327      H2332   1.044       .  S
N2330      H2333   1.041       .  S
N2330      H2334   1.045       .  S
C2335      C2336   1.402       .  A
C2335      C2340   1.405       .  A
C2335      H2342   1.083       .  S
C2336      C2337   1.416       .  A
C2337      C2338   1.415       .  A
C2337      N2344   1.431       .  S
C2338      C2339   1.405       .  A
C2338      H2343   1.084       .  S
C2339      C2340   1.422       .  A
C2340      N2341   1.438       .  S
N2341      H2345   1.046       .  S
N2341      H2346   1.044       .  S
N2344      H2347   1.045       .  S
N2344      H2348   1.045       .  S
C2349      C2350   1.408       .  A
C2349      C2354   1.410       .  A
C2349      H2356   1.083       .  S
C2350      C2351   1.415       .  A
C2351      C2352   1.418       .  A
C2351      N2358   1.434       .  S
C2352      C2353   1.407       .  A
C2352      H2357   1.083       .  S
C2353      C2354   1.420       .  A
C2354      N2355   1.439       .  S
N2355      H2359   1.046       .  S
N2355      H2360   1.044       .  S
N2358      H2361   1.045       .  S
N2358      H2362   1.045       .  S
C2363      C2364   1.403       .  A
C2363      C2368   1.408       .  A
C2363      H2370   1.084       .  S
C2364      C2365   1.414       .  A
C2365      C2366   1.417       .  A
C2365      N2372   1.431       .  S
C2366      C2367   1.407       .  A
C2366      H2371   1.083       .  S
C2367      C2368   1.424       .  A
C2368      N2369   1.438       .  S
N2369      H2373   1.046       .  S
N2369      H2374   1.045       .  S
N2372      H2375   1.045       .  S
N2372      H2376   1.045       .  S
C2377      C2378   1.405       .  A
C2377      C2382   1.407       .  A
C2377      H2384   1.081       .  S
C2378      C2379   1.410       .  A
C2379      C2380   1.412       .  A
C2379      N2386   1.436       .  S
C2380      C2381   1.410       .  A
C2380      H2385   1.084       .  S
C2381      C2382   1.419       .  A
C2382      N2383   1.438       .  S
N2383      H2387   1.045       .  S
N2383      H2388   1.042       .  S
N2386      H2389   1.044       .  S
N2386      H2390   1.045       .  S
C2391      C2392   1.395       .  A
C2391      C2396   1.394       .  A
C2391      H2398   1.083       .  S
C2392      C2393   1.427       .  A
C2393      C2394   1.421       .  A
C2393      N2400   1.436       .  S
C2394      C2395   1.407       .  A
C2394      H2399   1.083       .  S
C2395      C2396   1.423       .  A
C2396      N2397   1.439       .  S
N2397      H2401   1.045       .  S
N2397      H2402   1.044       .  S
N2400      H2403   1.043       .  S
N2400      H2404   1.045       .  S
C2405      C2406   1.405       .  A
C2405      C2410   1.406       .  A
C2405      H2412   1.085       .  S
C2406      C2407   1.419       .  A
C2407      C2408   1.414       .  A
C2407      N2414   1.436       .  S
C2408      C2409   1.408       .  A
C2408      H2413   1.084       .  S
C2409      C2410   1.419       .  A
C2410      N2411   1.438       .  S
N2411      H2415   1.046       .  S
N2411      H2416   1.032       .  S
N2414      H2417   1.043       .  S
N2414      H2418   1.046       .  S
C2419      C2420   1.404       .  A
C2419      C2424   1.402       .  A
C2419      H2426   1.085       .  S
C2420      C2421   1.418       .  A
C2421      C2422   1.414       .  A
C2421      N2428   1.437       .  S
C2422      C2423   1.409       .  A
C2422      H2427   1.082       .  S
C2423      C2424   1.418       .  A
C2424      N2425   1.427       .  S
N2425      H2429   1.044       .  S
N2425      H2430   1.042       .  S
N2428      H2431   1.044       .  S
N2428      H2432   1.046       .  S
C2433      C2434   1.403       .  A
C2433      C2438   1.393       .  A
C2433      H2440   1.079       .  S
C2434      C2435   1.419       .  A
C2435      C2436   1.421       .  A
C2435      N2442   1.431       .  S
C2436      C2437   1.413       .  A
C2436      H2441   1.083       .  S
C2437      C2438   1.416       .  A
C2438      N2439   1.439       .  S
N2439      H2443   1.046       .  S
N2439      H2444   1.045       .  S
N2442      H2445   1.045       .  S
N2442      H2446   1.045       .  S
C2447      C2448   1.411       .  A
C2447      C2452   1.416       .  A
C2447      H2454   1.084       .  S
C2448      C2449   1.424       .  A
C2449      C2450   1.408       .  A
C2449      N2456   1.438       .  S
C2450      C2451   1.406       .  A
C2450      H2455   1.085       .  S
C2451      C2452   1.418       .  A
C2452      N2453   1.436       .  S
N2453      H2457   1.045       .  S
N2453      H2458   1.045       .  S
N2456      H2459   1.038       .  S
N2456      H2460   1.046       .  S
C2461      C2462   1.403       .  A
C2461      C2466   1.400       .  A
C2461      H2468   1.080       .  S
C2462      C2463   1.416       .  A
C2463      C2464   1.425       .  A
C2463      N2470   1.436       .  S
C2464      C2465   1.410       .  A
C2464      H2469   1.083       .  S
C2465      C2466   1.420       .  A
C2466      N2467   1.439       .  S
N2467      H2471   1.045       .  S
N2467      H2472   1.043       .  S
N2470      H2473   1.045       .  S
N2470      H2474   1.045       .  S
C2475      C2476   1.400       .  A
C2475      C2480   1.401       .  A
C2475      H2482   1.084       .  S
C2476      C2477   1.425       .  A
C2477      C2478   1.420       .  A
C2477      N2484   1.437       .  S
C2478      C2479   1.410       .  A
C2478      H2483   1.083       .  S
C2479      C2480   1.420       .  A
C2480      N2481   1.427       .  S
N2481      H2485   1.035       .  S
N2481      H2486   1.045       .  S
N2484      H2487   1.043       .  S
N2484      H2488   1.045       .  S
C2489      C2490   1.410       .  A
C2489      C2494   1.409       .  A
C2489      H2496   1.083       .  S
C2490      C2491   1.420       .  A
C2491      C2492   1.415       .  A
C2491      N2498   1.438       .  S
C2492      C2493   1.413       .  A
C2492      H2497   1.084       .  S
C2493      C2494   1.417       .  A
C2494      N2495   1.437       .  S
N2495      H2499   1.046       .  S
N2495      H2500   1.044       .  S
N2498      H2501   1.043       .  S
N2498      H2502   1.045       .  S
C2503      C2504   1.407       .  A
C2503      C2508   1.421       .  A
C2503      H2510   1.083       .  S
C2504      C2505   1.429       .  A
C2505      C2506   1.403       .  A
C2505      N2512   1.434       .  S
C2506      C2507   1.400       .  A
C2506      H2511   1.083       .  S
C2507      C2508   1.424       .  A
C2508      N2509   1.431       .  S
N2509      H2513   1.045       .  S
N2509      H2514   1.045       .  S
N2512      H2515   1.046       .  S
N2512      H2516   1.046       .  S
C2517      C2518   1.410       .  A
C2517      C2522   1.411       .  A
C2517      H2524   1.084       .  S
C2518      C2519   1.427       .  A
C2519      C2520   1.414       .  A
C2519      N2526   1.437       .  S
C2520      C2521   1.405       .  A
C2520      H2525   1.084       .  S
C2521      C2522   1.419       .  A
C2522      N2523   1.438       .  S
N2523      H2527   1.045       .  S
N2523      H2528   1.044       .  S
N2526      H2529   1.038       .  S
N2526      H2530   1.046       .  S
C2531      C2532   1.404       .  A
C2531      C2536   1.411       .  A
C2531      H2538   1.084       .  S
C2532      C2533   1.421       .  A
C2533      C2534   1.406       .  A
C2533      N2540   1.436       .  S
C2534      C2535   1.402       .  A
C2534      H2539   1.084       .  S
C2535      C2536   1.415       .  A
C2536      N2537   1.431       .  S
N2537      H2541   1.045       .  S
N2537      H2542   1.045       .  S
N2540      H2543   1.043       .  S
N2540      H2544   1.045       .  S
C2545      C2546   1.402       .  A
C2545      C2550   1.407       .  A
C2545      H2552   1.084       .  S
C2546      C2547   1.417       .  A
C2547      C2548   1.411       .  A
C2547      N2554   1.435       .  S
C2548      C2549   1.402       .  A
C2548      H2553   1.084       .  S
C2549      C2550   1.421       .  A
C2550      N2551   1.438       .  S
N2551      H2555   1.046       .  S
N2551      H2556   1.044       .  S
N2554      H2557   1.044       .  S
N2554      H2558   1.045       .  S
C2559      C2560   1.401       .  A
C2559      C2564   1.410       .  A
C2559      H2566   1.081       .  S
C2560      C2561   1.422       .  A
C2561      C2562   1.414       .  A
C2561      N2568   1.438       .  S
C2562      C2563   1.408       .  A
C2562      H2567   1.084       .  S
C2563      C2564   1.414       .  A
C2564      N2565   1.434       .  S
N2565      H2569   1.046       .  S
N2565      H2570   1.045       .  S
N2568      H2571   1.043       .  S
N2568      H2572   1.046       .  S
C2573      C2574   1.409       .  A
C2573      C2578   1.421       .  A
C2573      H2580   1.083       .  S
C2574      C2575   1.410       .  A
C2575      C2576   1.399       .  A
C2575      N2582   1.432       .  S
C2576      C2577   1.406       .  A
C2576      H2581   1.085       .  S
C2577      C2578   1.415       .  A
C2578      N2579   1.436       .  S
N2579      H2583   1.046       .  S
N2579      H2584   1.045       .  S
N2582      H2585   1.045       .  S
N2582      H2586   1.045       .  S
C2587      C2588   1.409       .  A
C2587      C2592   1.411       .  A
C2587      H2594   1.083       .  S
C2588      C2589   1.413       .  A
C2589      C2590   1.412       .  A
C2589      N2596   1.437       .  S
C2590      C2591   1.407       .  A
C2590      H2595   1.084       .  S
C2591      C2592   1.416       .  A
C2592      N2593   1.436       .  S
N2593      H2597   1.045       .  S
N2593      H2598   1.045       .  S
N2596      H2599   1.042       .  S
N2596      H2600   1.045       .  S
C2601      C2602   1.405       .  A
C2601      C2606   1.405       .  A
C2601      H2608   1.082       .  S
C2602      C2603   1.412       .  A
C2603      C2604   1.413       .  A
C2603      N2610   1.437       .  S
C2604      C2605   1.408       .  A
C2604      H2609   1.084       .  S
C2605      C2606   1.416       .  A
C2606      N2607   1.437       .  S
N2607      H2611   1.046       .  S
N2607      H2612   1.045       .  S
N2610      H2613   1.042       .  S
N2610      H2614   1.045       .  S
C2615      C2616   1.405       .  A
C2615      C2620   1.412       .  A
C2615      H2622   1.084       .  S
C2616      C2617   1.411       .  A
C2617      C2618   1.409       .  A
C2617      N2624   1.436       .  S
C2618      C2619   1.407       .  A
C2618      H2623   1.084       .  S
C2619      C2620   1.424       .  A
C2620      N2621   1.438       .  S
N2621      H2625   1.046       .  S
N2621      H2626   1.041       .  S
N2624      H2627   1.041       .  S
N2624      H2628   1.045       .  S
C2629      C2630   1.410       .  A
C2629      C2634   1.400       .  A
C2629      H2636   1.084       .  S
C2630      C2631   1.420       .  A
C2631      C2632   1.413       .  A
C2631      N2638   1.438       .  S
C2632      C2633   1.410       .  A
C2632      H2637   1.083       .  S
C2633      C2634   1.406       .  A
C2634      N2635   1.433       .  S
N2635      H2639   1.046       .  S
N2635      H2640   1.045       .  S
N2638      H2641   1.042       .  S
N2638      H2642   1.046       .  S
C2643      C2644   1.405       .  A
C2643      C2648   1.398       .  A
C2643      H2650   1.081       .  S
C2644      C2645   1.419       .  A
C2645      C2646   1.410       .  A
C2645      N2652   1.437       .  S
C2646      C2647   1.408       .  A
C2646      H2651   1.084       .  S
C2647      C2648   1.414       .  A
C2648      N2649   1.438       .  S
N2649      H2653   1.046       .  S
N2649      H2654   1.044       .  S
N2652      H2655   1.042       .  S
N2652      H2656   1.045       .  S
C2657      C2658   1.397       .  A
C2657      C2662   1.405       .  A
C2657      H2664   1.081       .  S
C2658      C2659   1.427       .  A
C2659      C2660   1.427       .  A
C2659      N2666   1.436       .  S
C2660      C2661   1.414       .  A
C2660      H2665   1.082       .  S
C2661      C2662   1.434       .  A
C2662      N2663   1.439       .  S
N2663      H2667   1.046       .  S
N2663      H2668   1.044       .  S
N2666      H2669   1.045       .  S
N2666      H2670   1.045       .  S
C2671      C2672   1.409       .  A
C2671      C2676   1.420       .  A
C2671      H2678   1.083       .  S
C2672      C2673   1.419       .  A
C2673      C2674   1.398       .  A
C2673      N2680   1.433       .  S
C2674      C2675   1.402       .  A
C2674      H2679   1.085       .  S
C2675      C2676   1.424       .  A
C2676      N2677   1.436       .  S
N2677      H2681   1.045       .  S
N2677      H2682   1.045       .  S
N2680      H2683   1.040       .  S
N2680      H2684   1.039       .  S
C2685      C2686   1.400       .  A
C2685      C2690   1.414       .  A
C2685      H2692   1.083       .  S
C2686      C2687   1.417       .  A
C2687      C2688   1.408       .  A
C2687      N2694   1.433       .  S
C2688      C2689   1.407       .  A
C2688      H2693   1.072       .  S
C2689      C2690   1.433       .  A
C2690      N2691   1.435       .  S
N2691      H2695   1.045       .  S
N2691      H2696   1.045       .  S
N2694      H2697   1.045       .  S
N2694      H2698   1.045       .  S
C2699      C2700   1.413       .  A
C2699      C2704   1.425       .  A
C2699      H2706   1.083       .  S
C2700      C2701   1.414       .  A
C2701      C2702   1.389       .  A
C2701      N2708   1.431       .  S
C2702      C2703   1.401       .  A
C2702      H2707   1.085       .  S
C2703      C2704   1.412       .  A
C2704      N2705   1.430       .  S
N2705      H2709   1.045       .  S
N2705      H2710   1.045       .  S
N2708      H2711   1.046       .  S
N2708      H2712   1.045       .  S
C2713      C2714   1.404       .  A
C2713      C2718   1.412       .  A
C2713      H2720   1.084       .  S
C2714      C2715   1.412       .  A
C2715      C2716   1.402       .  A
C2715      N2722   1.438       .  S
C2716      C2717   1.405       .  A
C2716      H2721   1.084       .  S
C2717      C2718   1.423       .  A
C2718      N2719   1.437       .  S
N2719      H2723   1.045       .  S
N2719      H2724   1.041       .  S
N2722      H2725   1.044       .  S
N2722      H2726   1.046       .  S
C2727      C2728   1.404       .  A
C2727      C2732   1.406       .  A
C2727      H2734   1.081       .  S
C2728      C2729   1.421       .  A
C2729      C2730   1.403       .  A
C2729      N2736   1.436       .  S
C2730      C2731   1.403       .  A
C2730      H2735   1.085       .  S
C2731      C2732   1.419       .  A
C2732      N2733   1.438       .  S
N2733      H2737   1.046       .  S
N2733      H2738   1.043       .  S
N2736      H2739   1.037       .  S
N2736      H2740   1.046       .  S
C2741      C2742   1.410       .  A
C2741      C2746   1.403       .  A
C2741      H2748   1.085       .  S
C2742      C2743   1.420       .  A
C2743      C2744   1.408       .  A
C2743      N2750   1.437       .  S
C2744      C2745   1.408       .  A
C2744      H2749   1.084       .  S
C2745      C2746   1.414       .  A
C2746      N2747   1.437       .  S
N2747      H2751   1.046       .  S
N2747      H2752   1.041       .  S
N2750      H2753   1.040       .  S
N2750      H2754   1.046       .  S
C2755      C2756   1.403       .  A
C2755      C2760   1.405       .  A
C2755      H2762   1.083       .  S
C2756      C2757   1.430       .  A
C2757      C2758   1.407       .  A
C2757      N2764   1.435       .  S
C2758      C2759   1.397       .  A
C2758      H2763   1.084       .  S
C2759      C2760   1.414       .  A
C2760      N2761   1.438       .  S
N2761      H2765   1.046       .  S
N2761      H2766   1.045       .  S
N2764      H2767   1.035       .  S
N2764      H2768   1.046       .  S
C2769      C2770   1.404       .  A
C2769      C2774   1.409       .  A
C2769      H2776   1.084       .  S
C2770      C2771   1.417       .  A
C2771      C2772   1.407       .  A
C2771      N2778   1.438       .  S
C2772      C2773   1.407       .  A
C2772      H2777   1.081       .  S
C2773      C2774   1.425       .  A
C2774      N2775   1.438       .  S
N2775      H2779   1.046       .  S
N2775      H2780   1.039       .  S
N2778      H2781   1.044       .  S
N2778      H2782   1.046       .  S
C2783      C2784   1.409       .  A
C2783      C2788   1.420       .  A
C2783      H2790   1.083       .  S
C2784      C2785   1.414       .  A
C2785      C2786   1.393       .  A
C2785      N2792   1.440       .  S
C2786      C2787   1.401       .  A
C2786      H2791   1.077       .  S
C2787      C2788   1.426       .  A
C2788      N2789   1.428       .  S
N2789      H2793   1.045       .  S
N2789      H2794   1.043       .  S
N2792      H2795   1.045       .  S
N2792      H2796   1.045       .  S
C2797      C2798   1.401       .  A
C2797      C2802   1.396       .  A
C2797      H2804   1.085       .  S
C2798      C2799   1.424       .  A
C2799      C2800   1.421       .  A
C2799      N2806   1.436       .  S
C2800      C2801   1.409       .  A
C2800      H2805   1.083       .  S
C2801      C2802   1.425       .  A
C2802      N2803   1.438       .  S
N2803      H2807   1.045       .  S
N2803      H2808   1.044       .  S
N2806      H2809   1.044       .  S
N2806      H2810   1.045       .  S
C2811      C2812   1.416       .  A
C2811      C2816   1.412       .  A
C2811      H2818   1.074       .  S
C2812      C2813   1.424       .  A
C2813      C2814   1.411       .  A
C2813      N2820   1.431       .  S
C2814      C2815   1.409       .  A
C2814      H2819   1.084       .  S
C2815      C2816   1.420       .  A
C2816      N2817   1.437       .  S
N2817      H2821   1.045       .  S
N2817      H2822   1.040       .  S
N2820      H2823   1.046       .  S
N2820      H2824   1.046       .  S
C2825      C2826   1.417       .  A
C2825      C2830   1.417       .  A
C2825      H2832   1.082       .  S
C2826      C2827   1.411       .  A
C2827      C2828   1.409       .  A
C2827      N2834   1.431       .  S
C2828      C2829   1.415       .  A
C2828      H2833   1.084       .  S
C2829      C2830   1.419       .  A
C2830      N2831   1.437       .  S
N2831      H2835   1.045       .  S
N2831      H2836   1.041       .  S
N2834      H2837   1.046       .  S
N2834      H2838   1.046       .  S
C2839      C2840   1.409       .  A
C2839      C2844   1.409       .  A
C2839      H2846   1.084       .  S
C2840      C2841   1.416       .  A
C2841      C2842   1.411       .  A
C2841      N2848   1.438       .  S
C2842      C2843   1.413       .  A
C2842      H2847   1.084       .  S
C2843      C2844   1.419       .  A
C2844      N2845   1.437       .  S
N2845      H2849   1.046       .  S
N2845      H2850   1.043       .  S
N2848      H2851   1.043       .  S
N2848      H2852   1.045       .  S
C2853      C2854   1.407       .  A
C2853      C2858   1.407       .  A
C2853      H2860   1.083       .  S
C2854      C2855   1.415       .  A
C2855      C2856   1.417       .  A
C2855      N2862   1.436       .  S
C2856      C2857   1.408       .  A
C2856      H2861   1.084       .  S
C2857      C2858   1.419       .  A
C2858      N2859   1.438       .  S
N2859      H2863   1.046       .  S
N2859      H2864   1.044       .  S
N2862      H2865   1.045       .  S
N2862      H2866   1.045       .  S
C2867      C2868   1.406       .  A
C2867      C2872   1.407       .  A
C2867      H2874   1.084       .  S
C2868      C2869   1.418       .  A
C2869      C2870   1.414       .  A
C2869      N2876   1.432       .  S
C2870      C2871   1.410       .  A
C2870      H2875   1.084       .  S
C2871      C2872   1.421       .  A
C2872      N2873   1.438       .  S
N2873      H2877   1.042       .  S
N2873      H2878   1.044       .  S
N2876      H2879   1.045       .  S
N2876      H2880   1.045       .  S
