geometry optimzed in LAMMPS
_audit_creation_date              2020-11-30 
_audit_creation_method            'lammps2cif' 
_symmetry_space_group_name_H-M    'P1' 
_symmetry_Int_Tables_number       1 
_symmetry_cell_setting            triclinic 
loop_ 
_symmetry_equiv_pos_as_xyz 
  x,y,z 
_cell_length_a                    48.94250608 
_cell_length_b                    48.59373795812879 
_cell_length_c                    39.87433889034976 
_cell_angle_alpha                 90.81269825610858 
_cell_angle_beta                  89.17397898992172 
_cell_angle_gamma                 120.02834188128867 
loop_ 
_atom_site_label 
_atom_site_type_symbol 
_atom_site_fract_x 
_atom_site_fract_y 
_atom_site_fract_z 
_atom_site_charge 
O1          O  0.04604973  0.18464068  0.34462909    -0.87700
C2          C  0.08486413  0.15304526  0.41210468     0.88300
Mg3        Mg  0.01851412  0.15602160  0.30374829     1.58100
O4          O  0.13490506  0.20856863  0.35230732    -0.87400
O5          O  0.08539143  0.23200321  0.35414701    -0.74800
C6          C  0.10296106  0.10046221  0.23030003     0.93400
O7          O  0.01858082  0.11343512  0.36922153    -0.74600
O8          O  0.07411089  0.09253306  0.23428007    -0.82100
Mg9        Mg  0.03253147  0.16248202  0.39287932     1.58000
C10         C  0.20107754  0.18813690  0.30967789     0.93300
O11         O  0.04294766  0.20760065  0.42072416    -0.80300
H12         H  0.15679186  0.25224075  0.33283943    -0.05700
C13         C  0.10750783  0.11652209  0.32751639     0.88200
O14         O  0.06026447  0.18241617  0.26714555    -0.74900
O15         O  0.08034754  0.17355764  0.39955115    -0.87600
O16         O  0.19231365  0.20072535  0.33227677    -0.80400
C17         C  0.17461945  0.22250587  0.42936870     0.93400
C18         C  0.06475909  0.23201688  0.43528320     0.93300
Mg19       Mg  0.13511658  0.16826612  0.27564319     1.58000
O20         O  0.12506007  0.12387092  0.24585503    -0.80400
O21         O  0.14934607  0.21718148  0.29951525    -0.74600
O22         O  0.15031865  0.22561495  0.43079014    -0.80400
O23         O  0.48330012  0.15492982  0.38516484    -0.82100
O24         O  0.01834140  0.10789705  0.23650992    -0.80500
C25         C  0.14745011  0.22706838  0.32867713     0.87700
O26         O  0.08743142  0.15782336  0.26913968    -0.87600
O27         O  0.12087898  0.14554245  0.32387837    -0.87700
O28         O  0.08159943  0.09837851  0.31314111    -0.74800
Mg29       Mg  0.11532466  0.22369615  0.39176680     1.58000
O30         O  0.17822495  0.20558337  0.40723226    -0.82100
H31         H  0.04870130  0.22322693  0.32415806    -0.05900
O32         O  0.03199966  0.12181774  0.31604199    -0.87400
H33         H  0.01102861  0.07830085  0.33592246    -0.05700
H34         H  0.09900867  0.19416368  0.23823382    -0.05900
C35         C  0.02009005  0.10344875  0.33993975     0.87700
C36         C  0.05922441  0.21356016  0.34047453     0.88300
C37         C  0.08285548  0.17847744  0.25711346     0.88300
H38         H  0.11769326  0.10647898  0.34379384    -0.05800
O39         O  0.10707288  0.14851007  0.40204388    -0.74900
Mg40       Mg  0.05219657  0.10783559  0.27567518     1.58000
H41         H  0.06883182  0.13785131  0.43136178    -0.05900
C42         C  0.46566217  0.14220723  0.35996299     0.93300
O43         O  0.98910172  0.12563595  0.26161602    -0.82100
C44         C  0.99353917  0.11006878  0.23856775     0.93400
O45         O  0.09376193  0.24041504  0.43190825    -0.82100
Mg46       Mg  0.14847643  0.17459851  0.36508692     1.58200
O47         O  0.47405201  0.13029603  0.33620776    -0.80400
O48         O  0.18390697  0.17501509  0.28424355    -0.82100
C49         C  0.11172055  0.03045666  0.21360596    -0.10200
C50         C  0.09821986  0.04888336  0.22207022    -0.04100
C51         C  0.11107442  0.07983814  0.21034984    -0.10200
C52         C  0.13605335  0.09165654  0.18638820     0.10700
C53         C  0.14881003  0.07233550  0.17597682    -0.02000
C54         C  0.13666311  0.04162327  0.18979590     0.10500
C55         C  0.15019092  0.02311318  0.18009587    -0.12000
C56         C  0.17537669  0.03464888  0.15738670    -0.12000
C57         C  0.18827735  0.06531291  0.14395603     0.10500
C58         C  0.17484675  0.08435116  0.15319419    -0.02000
C59         C  0.14880143  0.12226364  0.17289331    -0.12100
C60         C  0.17371870  0.13373552  0.14972003    -0.12100
C61         C  0.18712859  0.11518052  0.13943491     0.10700
C62         C  0.21278241  0.12672838  0.11622528    -0.10200
C63         C  0.22642179  0.10800900  0.10846802    -0.04100
C64         C  0.21418494  0.07733699  0.12139264    -0.10200
H65         H  0.14114063  0.49936584  0.18988852     0.08000
H66         H  0.18506446  0.01952680  0.15084042     0.08000
H67         H  0.13937349  0.13748836  0.17999724     0.08200
H68         H  0.18281019  0.15761820  0.14051312     0.08200
H69         H  0.08038532  0.04068993  0.24179498     0.04600
H70         H  0.24505442  0.11628087  0.08964988     0.04600
C71         C  0.46637276  0.08903041  0.21790444    -0.10200
C72         C  0.44844860  0.05794922  0.22968855    -0.04100
C73         C  0.41752148  0.03819951  0.21928123    -0.10200
C74         C  0.40467703  0.04873571  0.19435328     0.10700
C75         C  0.42308544  0.07980993  0.18122510    -0.02000
C76         C  0.45401068  0.10021313  0.19330358     0.10500
C77         C  0.47167331  0.13115398  0.18058657    -0.12000
C78         C  0.45936817  0.14167222  0.15577617    -0.12000
C79         C  0.42875807  0.12182381  0.14352575     0.10500
C80         C  0.41021961  0.09083501  0.15672845    -0.02000
C81         C  0.37385555  0.02912010  0.18244771    -0.12100
C82         C  0.36156785  0.03961760  0.15755463    -0.12100
C83         C  0.37939223  0.07036482  0.14434705     0.10700
C84         C  0.36741967  0.08109095  0.11869304    -0.10200
C85         C  0.38548793  0.11203173  0.10690378    -0.04100
C86         C  0.41626035  0.13199973  0.11806070    -0.10200
H87         H  0.99535914  0.14720838  0.18933729     0.08000
H88         H  0.47387457  0.16558953  0.14641013     0.08000
H89         H  0.35917086  0.50523159  0.19185822     0.08200
H90         H  0.33784631  0.02357365  0.14889861     0.08200
H91         H  0.45742427  0.05027000  0.25013808     0.04600
H92         H  0.37689822  0.11932154  0.08576732     0.04600
O93         O  0.03787893  0.36683465  0.31325938    -0.87700
C94         C  0.04819033  0.45469542  0.31261975     0.88300
Mg95       Mg  0.03749822  0.34350443  0.35929777     1.58100
O96         O  0.10994964  0.44418842  0.28030197    -0.87400
O97         O  0.05432589  0.37567817  0.26143822    -0.74800
C98         C  0.17058801  0.44235432  0.43170524     0.93400
O99         O  0.01815606  0.39940156  0.37044935    -0.74600
O100        O  0.14364161  0.41917843  0.43948643    -0.82100
Mg101      Mg  0.00626330  0.38502703  0.31420721     1.58000
C102        C  0.19840990  0.01385926  0.31621815     0.93300
O103        O  0.98939131  0.37074287  0.25955505    -0.80300
H104        H  0.12818788  0.42610262  0.24747099    -0.05700
C105        C  0.12137220  0.47387386  0.37996121     0.88200
O106        O  0.08745148  0.35225201  0.34733630    -0.74900
O107        O  0.04465805  0.43020719  0.29884558    -0.87600
O108        O  0.17716740  0.00424191  0.29413768    -0.80400
C109        C  0.10578588  0.50511678  0.23711607     0.93400
C110        C  0.99375260  0.38677330  0.23300479     0.93300
Mg111      Mg  0.15754240  0.44560690  0.35080583     1.58000
O112        O  0.17520577  0.45836812  0.40510945    -0.80400
O113        O  0.14608263  0.43257772  0.29449738    -0.74600
O114        O  0.08105683  0.47793025  0.23463963    -0.80400
O115        O  0.46691917  0.33542076  0.32664346    -0.82100
O116        O  0.08227429  0.35232508  0.43043520    -0.80500
C117        C  0.12796431  0.43407113  0.27288358     0.87700
O118        O  0.11866847  0.40038253  0.36601800    -0.87600
O119        O  0.12636633  0.46444776  0.35296357    -0.87700
O120        O  0.11073020  0.45552018  0.40500166    -0.74800
Mg121      Mg  0.06695374  0.42756950  0.25252217     1.58000
O122        O  0.12574985  0.01216381  0.26032590    -0.82100
H123        H  0.03948485  0.33348527  0.28467615    -0.05900
O124        O  0.05411809  0.38767925  0.38547990    -0.87400
H125        H  0.03660074  0.40725909  0.41736348    -0.05700
H126        H  0.13532146  0.37376909  0.34561575    -0.05900
C127        C  0.03647156  0.39843464  0.39227638     0.87700
C128        C  0.04361741  0.35748616  0.28660909     0.88300
C129        C  0.11488851  0.37552397  0.35296492     0.88300
H130        H  0.12611469  0.49806622  0.38231560    -0.05800
O131        O  0.07545704  0.47777051  0.31926422    -0.74900
Mg132      Mg  0.09712724  0.40319668  0.41297450     1.58000
H133        H  0.02760179  0.45614757  0.32001888    -0.05900
C134        C  0.46588845  0.31837441  0.35091252     0.93300
O135        O  0.03632773  0.31897685  0.40674241    -0.82100
C136        C  0.05694248  0.32550586  0.42897765     0.93400
O137        O  0.02047849  0.41042612  0.22548853    -0.82100
Mg138      Mg  0.12580062  0.48792974  0.30736952     1.58200
O139        O  0.48712678  0.32973141  0.37295263    -0.80400
O140        O  0.19694297  0.99544917  0.33926309    -0.82100
O141        O  0.33147833  0.46220623  0.35349625    -0.87700
C142        C  0.26066886  0.37025585  0.35269417     0.88300
Mg143      Mg  0.35568514  0.48811806  0.30894631     1.58100
O144        O  0.33432256  0.38825345  0.38547987    -0.87400
O145        O  0.33923297  0.45379837  0.40507909    -0.74800
C146        C  0.39971319  0.39470429  0.23349649     0.93400
O147        O  0.28324784  0.42645397  0.29434540    -0.74600
O148        O  0.39607304  0.41795419  0.22547811    -0.82100
Mg149      Mg  0.28110424  0.43808658  0.35060547     1.58000
C150        C  0.36441527  0.32645659  0.34881133     0.93300
O151        O  0.27314136  0.44933896  0.40408933    -0.80300
H152        H  0.36964777  0.40976413  0.41823075    -0.05700
C153        C  0.32069635  0.36070005  0.28567875     0.88200
O154        O  0.39862238  0.48285419  0.32105563    -0.74900
O155        O  0.27976922  0.39560158  0.36621209    -0.87600
O156        O  0.35007183  0.33387512  0.37059650    -0.80400
C157        C  0.27078539  0.32217280  0.42633589     0.93400
C158        C  0.26613085  0.43724289  0.43315522     0.93300
Mg159      Mg  0.38464889  0.39320840  0.31489036     1.58000
O160        O  0.38989463  0.38043210  0.26123606    -0.80400
O161        O  0.38375144  0.40554691  0.37116188    -0.74600
O162        O  0.27067573  0.34828926  0.42973298    -0.80400
O163        O  0.28445029  0.48470871  0.33924111    -0.82100
O164        O  0.39759980  0.48489176  0.23759277    -0.80500
C165        C  0.36262642  0.40136940  0.39281405     0.87700
O166        O  0.38686525  0.43646304  0.30015777    -0.87600
O167        O  0.33452819  0.37028988  0.31265571    -0.87700
O168        O  0.32743319  0.37931635  0.26100207    -0.74800
Mg169      Mg  0.30391873  0.40068268  0.41338182     1.58000
O170        O  0.28663443  0.31774754  0.40367386    -0.82100
H171        H  0.36298515  0.49704162  0.38289430    -0.05900
O172        O  0.33290069  0.44485699  0.28033759    -0.87400
H173        H  0.29791990  0.42325634  0.24723928    -0.05700
H174        H  0.42841503  0.46513985  0.32179949    -0.05900
C175        C  0.30465376  0.43141340  0.27277323     0.87700
C176        C  0.34524381  0.47222618  0.38041653     0.88300
C177        C  0.40571832  0.46157492  0.31426658     0.88300
H178        H  0.30246257  0.33608578  0.28306521    -0.05800
O179        O  0.26775811  0.34900295  0.34584419    -0.74900
Mg180      Mg  0.36356719  0.43245760  0.25309518     1.58000
H181        H  0.23778398  0.36649742  0.34565080    -0.05900
C182        C  0.30166598  0.00539895  0.31793262     0.93300
O183        O  0.38111983  0.01527582  0.26309383    -0.82100
C184        C  0.39737255  0.51095607  0.24077358     0.93400
O185        O  0.27199715  0.41563946  0.44212583    -0.82100
Mg186      Mg  0.31114111  0.34453434  0.35752567     1.58200
O187        O  0.31711043  0.99930243  0.29619625    -0.80400
O188        O  0.38051205  0.34588601  0.32598532    -0.82100
C189        C  0.46568391  0.37975904  0.21322778    -0.10200
C190        C  0.44887795  0.39459925  0.22404936    -0.04100
C191        C  0.41842780  0.38484963  0.21259295    -0.10200
C192        C  0.40446181  0.35989767  0.18883148     0.10700
C193        C  0.42158621  0.34521559  0.17680037    -0.02000
C194        C  0.45239461  0.35531477  0.18887309     0.10500
C195        C  0.46882456  0.34038699  0.17671821    -0.12000
C196        C  0.45538224  0.31610795  0.15282488    -0.12000
C197        C  0.42471035  0.30535192  0.14092656     0.10500
C198        C  0.40738466  0.31953220  0.15364004    -0.02000
C199        C  0.37353763  0.34864263  0.17756302    -0.12100
C200        C  0.35968283  0.32351377  0.15466138    -0.12100
C201        C  0.37619413  0.30863984  0.14250743     0.10700
C202        C  0.36233767  0.28309208  0.11942443    -0.10200
C203        C  0.37937235  0.26871905  0.10789321    -0.04100
C204        C  0.41075493  0.28055247  0.11684580    -0.10200
H205        H  0.49235909  0.34762347  0.18539916     0.08000
H206        H  0.46898117  0.30530592  0.14432103     0.08000
H207        H  0.35986409  0.35928948  0.18634185     0.08200
H208        H  0.33574193  0.31550482  0.14681607     0.08200
H209        H  0.45857918  0.41223773  0.24403668     0.04600
H210        H  0.36934522  0.25058356  0.08841171     0.04600
O211        O  0.29590138  0.00096969  0.98177860    -0.87700
C212        C  0.20567740  0.42680597  0.97630334     0.88300
Mg213      Mg  0.32098436  0.02116165  0.02765507     1.58100
O214        O  0.21790415  0.00114132  0.94833834    -0.87400
O215        O  0.28554091  0.01129329  0.93166617    -0.74800
C216        C  0.22325607  0.05633383  0.10345687     0.93400
O217        O  0.25977670  0.44542951  0.03504355    -0.74600
O218        O  0.24785190  0.05519549  0.11089610    -0.82100
Mg219      Mg  0.27366844  0.45080811  0.97870665     1.58000
C220        C  0.15602742  0.02753390  0.99208926     0.93300
O221        O  0.28971891  0.45491480  0.92463830    -0.80300
H222        H  0.23946738  0.03948866  0.91908902    -0.05700
C223        C  0.19176890  0.47823005  0.04783097     0.88200
O224        O  0.31435884  0.06433626  0.02066463    -0.74900
O225        O  0.23056091  0.44909801  0.96562950    -0.87600
O226        O  0.15835851  0.50948018  0.97019277    -0.80400
C227        C  0.15502533  0.43555404  0.90563892     0.93400
C228        C  0.27304111  0.44022327  0.89954894     0.93300
Mg229      Mg  0.22269137  0.04444211  0.02439917     1.58000
O230        O  0.20659336  0.04093812  0.07862733    -0.80400
O231        O  0.23600235  0.04961433  0.96805740    -0.74600
O232        O  0.18211235  0.43788098  0.90244667    -0.80400
O233        O  0.31934349  0.45257290  0.98955524    -0.82100
O234        O  0.31428498  0.05789585  0.09990103    -0.80500
C235        C  0.23114039  0.03022919  0.94396218     0.87700
O236        O  0.26593961  0.04629862  0.03729311    -0.87600
O237        O  0.20037480  0.49405132  0.02180928    -0.87700
O238        O  0.21038223  0.48471022  0.07247280    -0.74800
Mg239      Mg  0.23340705  0.47340359  0.92009201     1.58000
O240        O  0.14879431  0.44994113  0.92870990    -0.82100
H241        H  0.32806286  0.03728134  0.95441471    -0.05900
O242        O  0.27743614  0.49376574  0.05509852    -0.87400
H243        H  0.25514611  0.45513584  0.08387732    -0.05700
H244        H  0.29316368  0.09117096  0.02205926    -0.05900
C245        C  0.26399095  0.46461233  0.05920419     0.87700
C246        C  0.30427243  0.01735669  0.95612705     0.88300
C247        C  0.29108086  0.06832319  0.02668135     0.88300
H248        H  0.16787199  0.45854086  0.04975444    -0.05800
O249        O  0.18230503  0.43042251  0.98296844    -0.74900
Mg250      Mg  0.26270875  0.02249698  0.08324776     1.58000
H251        H  0.20398514  0.40408275  0.98061278    -0.05900
C252        C  0.33924389  0.46612000  0.01269569     0.93300
O253        O  0.34647652  0.04326395  0.07553910    -0.82100
C254        C  0.34088890  0.05903968  0.09748377     0.93400
O255        O  0.24874020  0.44183006  0.89212280    -0.82100
Mg256      Mg  0.17471874  0.47294760  0.97634072     1.58200
O257        O  0.33578086  0.98344243  0.03461021    -0.80400
O258        O  0.17708186  0.04212678  0.01389057    -0.82100
O259        O  0.28712891  0.30597183  0.99445821    -0.87700
C260        C  0.25125620  0.24035661  0.92105494     0.88300
Mg261      Mg  0.31216382  0.30142350  0.03576981     1.58100
O262        O  0.19887223  0.24309600  0.98107136    -0.87400
O263        O  0.24999004  0.31665626  0.98446852    -0.74800
C264        C  0.22334088  0.15608309  0.09639097     0.93400
O265        O  0.31348354  0.26251755  0.96655507    -0.74600
O266        O  0.25267294  0.17660748  0.09428254    -0.82100
Mg267      Mg  0.30291763  0.30052921  0.94565456     1.58000
C268        C  0.12914842  0.15484878  0.01819812     0.93300
O269        O  0.29579995  0.33860836  0.91917240    -0.80300
H270        H  0.17902328  0.26554632  0.00432245    -0.05700
C271        C  0.22329015  0.17512736  0.00099713     0.88200
O272        O  0.26934897  0.28483392  0.07072747    -0.74900
O273        O  0.25530226  0.26512221  0.93468362    -0.87600
O274        O  0.13930548  0.17399185  0.99374466    -0.80400
C275        C  0.16206021  0.22001725  0.90187060     0.93400
C276        C  0.27458341  0.34148632  0.90395431     0.93300
Mg277      Mg  0.19571723  0.19762486  0.05489909     1.58000
O278        O  0.20254522  0.15944654  0.08099495    -0.80400
O279        O  0.18477244  0.23531278  0.03417609    -0.74600
O280        O  0.18538434  0.24834505  0.90311582    -0.80400
O281        O  0.35242376  0.33991711  0.95861572    -0.82100
O282        O  0.31137520  0.24874611  0.09789956    -0.80500
C283        C  0.18711333  0.24859670  0.00614443     0.87700
O284        O  0.24307914  0.23291283  0.06558030    -0.87600
O285        O  0.21115432  0.19172306  0.00599853    -0.87700
O286        O  0.24818919  0.18089892  0.01603339    -0.74800
Mg287      Mg  0.22061723  0.28015127  0.94400890     1.58000
O288        O  0.15870153  0.19868123  0.92210729    -0.82100
H289        H  0.28543515  0.34199807  0.01730271    -0.05900
O290        O  0.29865556  0.25409442  0.01947162    -0.87400
H291        H  0.31854333  0.23168934  0.99618247    -0.05700
H292        H  0.23046673  0.25610272  0.09842261    -0.05900
C293        C  0.31060339  0.24876339  0.99443335     0.87700
C294        C  0.27497521  0.32255446  0.99942787     0.88300
C295        C  0.24713796  0.25762386  0.07942179     0.88300
H296        H  0.21289154  0.15578536  0.98300036    -0.05800
O297        O  0.22902539  0.21321654  0.92986503    -0.74900
Mg298      Mg  0.27721166  0.21723441  0.05661271     1.58000
H299        H  0.26792048  0.24176868  0.90210283    -0.05900
C300        C  0.36874872  0.34176442  0.98394701     0.93300
O301        O  0.33919254  0.29805755  0.07825999    -0.82100
C302        C  0.33520068  0.27670655  0.09879281     0.93400
O303        O  0.24531939  0.32072762  0.90637356    -0.82100
Mg304      Mg  0.18594152  0.19573515  0.96469524     1.58200
O305        O  0.35790532  0.32040127  0.00614190    -0.80400
O306        O  0.14648095  0.15859089  0.04317471    -0.82100
O307        O  0.01549078  0.20810102  0.99162975    -0.87700
C308        C  0.48852805  0.24629437  0.91960005     0.88300
Mg309      Mg  0.98474523  0.18177536  0.03230296     1.58100
O310        O  0.04219323  0.29714257  0.98062404    -0.87400
O311        O  0.06361584  0.24559840  0.98245328    -0.74800
C312        C  0.42945825  0.27036534  0.09624896     0.93400
O313        O  0.44666198  0.18192757  0.96337661    -0.74600
O314        O  0.42011823  0.24088310  0.09287003    -0.82100
Mg315      Mg  0.49574443  0.19347878  0.94253730     1.58000
C316        C  0.02426907  0.36694957  0.01935642     0.93300
O317        O  0.04130923  0.20168916  0.91605522    -0.80300
H318        H  0.08407562  0.31695580  0.00329647    -0.05700
C319        C  0.45024319  0.27311764  0.00051825     0.88200
O320        O  0.01027845  0.22395302  0.06847881    -0.74900
O321        O  0.50848791  0.24169301  0.93305160    -0.87600
O322        O  0.03441810  0.35711665  0.99526346    -0.80400
C323        C  0.05915252  0.33605306  0.90263765     0.93400
C324        C  0.06586608  0.22335212  0.90133537     0.93300
Mg325      Mg  0.49900346  0.29931730  0.05461055     1.58000
O326        O  0.45401469  0.29173395  0.08134325    -0.80400
O327        O  0.04786752  0.31081602  0.03379051    -0.74600
O328        O  0.06329475  0.31221295  0.90304632    -0.80400
O329        O  0.48580588  0.14358093  0.95405939    -0.82100
O330        O  0.43224067  0.18225906  0.09472290    -0.80500
C331        C  0.05911136  0.30875762  0.00551270     0.87700
O332        O  0.48596962  0.25118827  0.06359806    -0.87600
O333        O  0.47871765  0.28507973  0.00559012    -0.87700
O334        O  0.43056441  0.24757509  0.01475191    -0.74800
Mg335      Mg  0.05805822  0.27615442  0.94296980     1.58000
O336        O  0.04101371  0.33940974  0.92310318    -0.82100
H337        H  0.05215904  0.20910163  0.01429356    -0.05900
O338        O  0.45201121  0.19604137  0.01649777    -0.87400
H339        H  0.41029040  0.17616002  0.99343425    -0.05700
H340        H  0.02016566  0.26269283  0.09702244    -0.05900
C341        C  0.43526217  0.18432671  0.99147164     0.87700
C342        C  0.04394703  0.22011674  0.99678614     0.88300
C343        C  0.00562627  0.24644297  0.07754579     0.88300
H344        H  0.44203111  0.28419417  0.98308705    -0.05800
O345        O  0.48390572  0.26874717  0.92891394    -0.74900
Mg346      Mg  0.43635512  0.21720254  0.05425851     1.58000
H347        H  0.47372223  0.22996243  0.90031918    -0.05900
C348        C  0.47081300  0.12651823  0.97907989     0.93300
O349        O  0.45322757  0.15386209  0.07464724    -0.82100
C350        C  0.43617685  0.15833594  0.09569768     0.93400
O351        O  0.07465551  0.25273396  0.90451505    -0.82100
Mg352      Mg  0.50924870  0.31120935  0.96486678     1.58200
O353        O  0.45881537  0.13654244  0.00101716    -0.80400
O354        O  0.00978970  0.34927146  0.04414011    -0.82100
O355        O  0.16723100  0.12885695  0.68649529    -0.87700
C356        C  0.09513683  0.03669432  0.68752469     0.88300
Mg357      Mg  0.19075047  0.15505023  0.64216648     1.58100
O358        O  0.16864474  0.05180318  0.71858408    -0.87400
O359        O  0.17562713  0.11851662  0.73727793    -0.74800
C360        C  0.22960080  0.05996171  0.56507909     0.93400
O361        O  0.11620081  0.09261965  0.62892110    -0.74600
O362        O  0.22712270  0.08398866  0.55796829    -0.82100
Mg363      Mg  0.11696612  0.10480803  0.68513078     1.58000
C364        C  0.19840120  0.49109489  0.67789814     0.93300
O365        O  0.11376944  0.11834463  0.73887616    -0.80300
H366        H  0.20522563  0.07336465  0.74981606    -0.05700
C367        C  0.15073843  0.02578442  0.61871954     0.88200
O368        O  0.23290053  0.14806595  0.65222618    -0.74900
O369        O  0.11584999  0.06203616  0.69949881    -0.87600
O370        O  0.18133411  0.49451101  0.69998424    -0.80400
C371        C  0.10364299  0.48702697  0.76006463     0.93400
C372        C  0.10318412  0.10322620  0.76601980     0.93300
Mg373      Mg  0.21565105  0.05766753  0.64518806     1.58000
O374        O  0.21660902  0.04344325  0.59091058    -0.80400
O375        O  0.21759287  0.07005003  0.70168112    -0.74600
O376        O  0.10451106  0.01366625  0.76240843    -0.80400
O377        O  0.11844943  0.15042798  0.67313114    -0.82100
O378        O  0.22982929  0.14968948  0.57016807    -0.80500
C379        C  0.19724933  0.06516114  0.72456899     0.87700
O380        O  0.21756112  0.10081848  0.63201132    -0.87600
O381        O  0.16550913  0.03427370  0.64532443    -0.87700
O382        O  0.15751369  0.04498214  0.59447551    -0.74800
Mg383      Mg  0.13920157  0.06559011  0.74614543     1.58000
O384        O  0.11937252  0.48155979  0.73799390    -0.82100
H385        H  0.20043684  0.16209132  0.71594368    -0.05900
O386        O  0.16549474  0.11195820  0.61293584    -0.87400
H387        H  0.12955398  0.09037091  0.58097335    -0.05700
H388        H  0.26064725  0.12797039  0.65109838    -0.05900
C389        C  0.13701182  0.09834684  0.60638831     0.87700
C390        C  0.18180803  0.13765612  0.71317200     0.88300
C391        C  0.23812689  0.12564979  0.64497889     0.88300
H392        H  0.13165914  0.00155455  0.61599757    -0.05800
O393        O  0.10037321  0.01410458  0.68122784    -0.74900
Mg394      Mg  0.19469851  0.09801172  0.58555823     1.58000
H395        H  0.07238914  0.03394642  0.68167953    -0.05900
C396        C  0.13425891  0.17196921  0.65196659     0.93300
O397        O  0.21620542  0.18213449  0.59609851    -0.82100
C398        C  0.23155369  0.17660630  0.57366640     0.93400
O399        O  0.10708323  0.08014906  0.77383618    -0.82100
Mg400      Mg  0.14330087  0.00813638  0.69059428     1.58200
O401        O  0.15418420  0.17032130  0.63245482    -0.80400
O402        O  0.21305233  0.51180143  0.65572188    -0.82100
C403        C  0.08556067  0.21382807  0.88154830    -0.10200
C404        C  0.11677233  0.22621533  0.89164951    -0.04100
C405        C  0.13480876  0.21272220  0.88077684    -0.10200
C406        C  0.12198216  0.18726470  0.85745787     0.10700
C407        C  0.09110329  0.17599188  0.84498875    -0.02000
C408        C  0.07284757  0.18940022  0.85693786     0.10500
C409        C  0.04251262  0.17820343  0.84382967    -0.12000
C410        C  0.03033230  0.15430147  0.81938115    -0.12000
C411        C  0.04777017  0.14024274  0.80764860     0.10500
C412        C  0.07814358  0.15066878  0.82124712    -0.02000
C413        C  0.13922598  0.17283940  0.84633887    -0.12100
C414        C  0.12648859  0.14791964  0.82313214    -0.12100
C415        C  0.09603557  0.13651505  0.81035531     0.10700
C416        C  0.08328076  0.11179001  0.78630954    -0.10200
C417        C  0.05308477  0.10127636  0.77368093    -0.04100
C418        C  0.03565116  0.11582005  0.78292772    -0.10200
H419        H  0.02816539  0.18830328  0.85191847     0.08000
H420        H  0.00687450  0.14657532  0.81015878     0.08000
H421        H  0.16288235  0.18100141  0.85526130     0.08200
H422        H  0.14066568  0.13754621  0.81528807     0.08200
H423        H  0.12589719  0.24418458  0.91134997     0.04600
H424        H  0.04432453  0.08352431  0.75375680     0.04600
C425        C  0.12892765  0.41424014  0.88340432    -0.10200
C426        C  0.11038554  0.38279129  0.89373871    -0.04100
C427        C  0.07971073  0.36351646  0.88177752    -0.10200
C428        C  0.06763236  0.37535592  0.85756997     0.10700
C429        C  0.08689681  0.40660886  0.84528536    -0.02000
C430        C  0.11778528  0.42606733  0.85797647     0.10500
C431        C  0.13650416  0.45691534  0.84524395    -0.12000
C432        C  0.12525424  0.46820157  0.82000491    -0.12000
C433        C  0.09438847  0.44956989  0.80780940     0.10500
C434        C  0.07476465  0.41884248  0.82126543    -0.02000
C435        C  0.03664319  0.35687283  0.84576586    -0.12100
C436        C  0.02469401  0.36893418  0.82230390    -0.12100
C437        C  0.04337685  0.39983322  0.80980706     0.10700
C438        C  0.03159179  0.41205172  0.78569811    -0.10200
C439        C  0.05109545  0.44253773  0.77287279    -0.04100
C440        C  0.08261244  0.46070379  0.78233308    -0.10200
H441        H  0.16025866  0.47225316  0.85423627     0.08000
H442        H  0.14066909  0.49191628  0.81056342     0.08000
H443        H  0.02144257  0.33285729  0.85453669     0.08200
H444        H  0.50060130  0.35391450  0.81410711     0.08200
H445        H  0.11848558  0.37446372  0.91440592     0.04600
H446        H  0.04273082  0.45067794  0.75227485     0.04600
O447        O  0.47382187  0.12155707  0.67228925    -0.87700
C448        C  0.40716346  0.08486296  0.74419971     0.88300
Mg449      Mg  0.47001212  0.14724856  0.63114372     1.58100
O450        O  0.41080858  0.03261302  0.68441108    -0.87400
O451        O  0.48369326  0.08359073  0.68188265    -0.74800
C452        C  0.32690661  0.05823287  0.56786031     0.93400
O453        O  0.43082173  0.14864709  0.69981767    -0.74600
O454        O  0.34737315  0.08768156  0.57073941    -0.82100
Mg455      Mg  0.46776577  0.13702447  0.72116676     1.58000
C456        C  0.32366979  0.46209660  0.64701790     0.93300
O457        O  0.00483132  0.12901430  0.74814400    -0.80300
H458        H  0.43323614  0.01236479  0.66199453    -0.05700
C459        C  0.34355372  0.05686410  0.66374052     0.88200
O460        O  0.45366247  0.10439154  0.59567354    -0.74900
O461        O  0.43199899  0.08907458  0.73103117    -0.87600
O462        O  0.34334975  0.47232437  0.67083811    -0.80400
C463        C  0.38776870  0.99557415  0.76372199     0.93400
C464        C  0.50701187  0.10714524  0.76312872     0.93300
Mg465      Mg  0.36661972  0.02938218  0.61019296     1.58000
O466        O  0.32952492  0.03678867  0.58312530    -0.80400
O467        O  0.40360099  0.01807458  0.63144940    -0.74600
O468        O  0.41547579  0.01958576  0.76282894    -0.80400
O469        O  0.00754865  0.18672421  0.70926832    -0.82100
O470        O  0.41852707  0.14750572  0.56875814    -0.80500
C471        C  0.41650183  0.02058430  0.65967943     0.87700
O472        O  0.40209181  0.07749161  0.60026760    -0.87600
O473        O  0.35990888  0.04447256  0.65896179    -0.87700
O474        O  0.34986051  0.08227996  0.64904026    -0.74800
Mg475      Mg  0.44693712  0.05413403  0.72190583     1.58000
O476        O  0.36664970  0.99140806  0.74298118    -0.82100
H477        H  0.50952476  0.11960218  0.64960177    -0.05900
O478        O  0.42282928  0.13355955  0.64698408    -0.87400
H479        H  0.40088841  0.15424823  0.66957798    -0.05700
H480        H  0.42566081  0.06534245  0.56756473    -0.05900
C481        C  0.41750582  0.14586485  0.67174907     0.87700
C482        C  0.49004632  0.10905913  0.66727770     0.88300
C483        C  0.42682873  0.08188858  0.58668140     0.88300
H484        H  0.32397482  0.04626155  0.68128724    -0.05800
O485        O  0.38037579  0.06226565  0.73521699    -0.74900
Mg486      Mg  0.38671850  0.11208391  0.60924394     1.58000
H487        H  0.40821337  0.10163182  0.76297009    -0.05900
C488        C  0.01021283  0.20340074  0.68386400     0.93300
O489        O  0.46731081  0.17508296  0.58890404    -0.82100
C490        C  0.44638089  0.17139655  0.56816961     0.93400
O491        O  0.48619019  0.07790103  0.76006389    -0.82100
Mg492      Mg  0.36368567  0.01894293  0.70032539     1.58200
O493        O  0.98929184  0.19312625  0.66134050    -0.80400
O494        O  0.32720494  0.47949741  0.62196002    -0.82100
O495        O  0.37766208  0.35084238  0.67587725    -0.87700
C496        C  0.41462186  0.32115396  0.74630561     0.88300
Mg497      Mg  0.35217444  0.32130342  0.63431679     1.58100
O498        O  0.46684106  0.37656959  0.68721648    -0.87400
O499        O  0.41582859  0.39876227  0.68565173    -0.74800
C500        C  0.44130655  0.26692232  0.56757117     0.93400
O501        O  0.35109020  0.28058672  0.70164937    -0.74600
O502        O  0.41201915  0.25783906  0.57068183    -0.82100
Mg503      Mg  0.36255837  0.32944910  0.72430164     1.58000
C504        C  0.03723605  0.35889850  0.64800620     0.93300
O505        O  0.37064488  0.37469947  0.75199664    -0.80300
H506        H  0.48825376  0.41975078  0.66662737    -0.05700
C507        C  0.44196948  0.28418947  0.66434120     0.88200
O508        O  0.39502099  0.34782732  0.59926817    -0.74900
O509        O  0.41043291  0.34182676  0.73364832    -0.87600
O510        O  0.02685860  0.36745458  0.67306511    -0.80400
C511        C  0.50398723  0.39142881  0.76531269     0.93400
C512        C  0.39206677  0.39933936  0.76686207     0.93300
Mg513      Mg  0.47016002  0.33551122  0.61201394     1.58000
O514        O  0.46246446  0.29107676  0.58324840    -0.80400
O515        O  0.48220433  0.38424771  0.63465791    -0.74600
O516        O  0.48043081  0.39582969  0.76526963    -0.80400
O517        O  0.31285009  0.31966099  0.71321873    -0.82100
O518        O  0.35338680  0.27100704  0.56916895    -0.80500
C519        C  0.47956126  0.39459491  0.66327465     0.87700
O520        O  0.42224702  0.32335480  0.60308022    -0.87600
O521        O  0.45490017  0.31311372  0.66017565    -0.87700
O522        O  0.41655088  0.26541739  0.64949537    -0.74800
Mg523      Mg  0.44526673  0.39187231  0.72512343     1.58000
O524        O  0.50717565  0.37328462  0.74455699    -0.82100
H525        H  0.37983805  0.38866171  0.65400767    -0.05900
O526        O  0.36583967  0.28761496  0.64868882    -0.87400
H527        H  0.34553548  0.24484709  0.67024938    -0.05700
H528        H  0.43438149  0.35938674  0.57157883    -0.05900
C529        C  0.35377779  0.26996090  0.67312178     0.87700
C530        C  0.39028583  0.37965748  0.67127020     0.88300
C531        C  0.41779283  0.34378891  0.59021919     0.88300
H532        H  0.45205630  0.27478136  0.68157546    -0.05800
O533        O  0.43692011  0.31656752  0.73680369    -0.74900
Mg534      Mg  0.38757817  0.27317319  0.61001932     1.58000
H535        H  0.39804293  0.30567309  0.76502587    -0.05900
C536        C  0.29628370  0.30553289  0.68764203     0.93300
O537        O  0.32464172  0.29072524  0.59130247    -0.82100
C538        C  0.32908429  0.27422292  0.56939405     0.93400
O539        O  0.42129293  0.40819213  0.76373828    -0.82100
Mg540      Mg  0.47999510  0.34242973  0.70201663     1.58200
O541        O  0.30665077  0.29465795  0.66477827    -0.80400
O542        O  0.01993310  0.34557875  0.62262423    -0.82100
C543        C  0.28189710  0.41967056  0.88081794    -0.10200
C544        C  0.27065717  0.38917589  0.89364142    -0.04100
C545        C  0.28427968  0.37080744  0.88442460    -0.10200
C546        C  0.30884828  0.38261343  0.85992022     0.10700
C547        C  0.32008431  0.41338475  0.84636383    -0.02000
C548        C  0.30670699  0.43204855  0.85709767     0.10500
C549        C  0.31870599  0.46280903  0.84423473    -0.12000
C550        C  0.34317506  0.47493138  0.82077743    -0.12000
C551        C  0.35663081  0.45680664  0.80957995     0.10500
C552        C  0.34518853  0.42584705  0.82252773    -0.02000
C553        C  0.32222861  0.36446822  0.84826504    -0.12100
C554        C  0.34621412  0.37632995  0.82399370    -0.12100
C555        C  0.35805147  0.40696335  0.81078607     0.10700
C556        C  0.38247528  0.41936402  0.78621051    -0.10200
C557        C  0.39454885  0.45051924  0.77520858    -0.04100
C558        C  0.38119201  0.46884340  0.78555160    -0.10200
H559        H  0.30901975  0.47765240  0.85200579     0.08000
H560        H  0.35167963  0.49876474  0.81161570     0.08000
H561        H  0.31392022  0.34069723  0.85743166     0.08200
H562        H  0.35575417  0.36142784  0.81599807     0.08200
H563        H  0.25281926  0.38073749  0.91334452     0.04600
H564        H  0.41215829  0.45929940  0.75525755     0.04600
C565        C  0.05176885  0.29981134  0.45175468    -0.10200
C566        C  0.06648988  0.28259276  0.44257733    -0.04100
C567        C  0.05555782  0.25201990  0.45463111    -0.10200
C568        C  0.03086153  0.23904058  0.47869249     0.10700
C569        C  0.01658807  0.25684583  0.48948304    -0.02000
C570        C  0.02715728  0.28747554  0.47613357     0.10500
C571        C  0.01259174  0.30469391  0.48718836    -0.12000
C572        C  0.48817686  0.29204942  0.51103616    -0.12000
C573        C  0.47673542  0.26129962  0.52381616     0.10500
C574        C  0.49076806  0.24336203  0.51245186    -0.02000
C575        C  0.01986307  0.20853621  0.49186602    -0.12100
C576        C  0.49462012  0.19533533  0.51440121    -0.12100
C577        C  0.47953998  0.21220298  0.52466581     0.10700
C578        C  0.45351065  0.19868771  0.54695109    -0.10200
C579        C  0.43909135  0.21614348  0.55689003    -0.04100
C580        C  0.45138829  0.24773578  0.54733581    -0.10200
H581        H  0.02029208  0.32826584  0.47771628     0.08000
H582        H  0.47772655  0.30622174  0.51873006     0.08000
H583        H  0.03074583  0.19460133  0.48483959     0.08200
H584        H  0.48666940  0.17155108  0.52337163     0.08200
H585        H  0.08400655  0.29144153  0.42253441     0.04600
H586        H  0.42055182  0.20636795  0.57584966     0.04600
C587        C  0.20222377  0.24391459  0.44953788    -0.10200
C588        C  0.22012017  0.27483567  0.43731720    -0.04100
C589        C  0.25093129  0.29498471  0.44795788    -0.10200
C590        C  0.26393735  0.28483134  0.47312639     0.10700
C591        C  0.24559745  0.25392932  0.48665257    -0.02000
C592        C  0.21461664  0.23330626  0.47470410     0.10500
C593        C  0.19687092  0.20273284  0.48818723    -0.12000
C594        C  0.20913850  0.19272557  0.51349014    -0.12000
C595        C  0.23989586  0.21264479  0.52543342     0.10500
C596        C  0.25855981  0.24327902  0.51146249    -0.02000
C597        C  0.29484276  0.30459904  0.48485408    -0.12100
C598        C  0.30737606  0.29430986  0.50975470    -0.12100
C599        C  0.28962900  0.26372570  0.52330363     0.10700
C600        C  0.30188323  0.25295589  0.54862735    -0.10200
C601        C  0.28328015  0.22243304  0.56168037    -0.04100
C602        C  0.25224661  0.20288790  0.55148360    -0.10200
H603        H  0.17312091  0.18657912  0.47967885     0.08000
H604        H  0.19444805  0.16906816  0.52342020     0.08000
H605        H  0.30940935  0.32835192  0.47511005     0.08200
H606        H  0.33119420  0.31035057  0.51815269     0.08200
H607        H  0.21112968  0.28217599  0.41658796     0.04600
H608        H  0.29185142  0.21515889  0.58284440     0.04600
C609        C  0.19844075  0.44980637  0.45209604    -0.10200
C610        C  0.21611459  0.43566884  0.44209923    -0.04100
C611        C  0.24669989  0.44645162  0.45400197    -0.10200
C612        C  0.25961491  0.47149011  0.47794830     0.10700
C613        C  0.24162289  0.48562331  0.48886898    -0.02000
C614        C  0.21092993  0.47465863  0.47591430     0.10500
C615        C  0.19370698  0.48923420  0.48651403    -0.12000
C616        C  0.20632036  0.01422212  0.50945383    -0.12000
C617        C  0.23686133  0.02595366  0.52203978     0.10500
C618        C  0.25477692  0.01165258  0.51171365    -0.02000
C619        C  0.29026340  0.48348472  0.49042282    -0.12100
C620        C  0.30286376  0.00855068  0.51362261    -0.12100
C621        C  0.28549526  0.02294939  0.52474019     0.10700
C622        C  0.29799483  0.04861052  0.54817798    -0.10200
C623        C  0.28029287  0.06299100  0.55704047    -0.04100
C624        C  0.24970296  0.05139694  0.54516177    -0.10200
H625        H  0.17018317  0.48124003  0.47727242     0.08000
H626        H  0.19215999  0.02474493  0.51683132     0.08000
H627        H  0.30460966  0.47333811  0.48244949     0.08200
H628        H  0.32663534  0.01699357  0.52227742     0.08200
H629        H  0.20702285  0.41784143  0.42225581     0.04600
H630        H  0.28917793  0.08144019  0.57624116     0.04600
C631        C  0.48877306  0.02069626  0.00408242     0.02900
C632        C  0.02111419  0.03030428  0.00574618     0.02900
C633        C  0.03055807  0.50729077  0.00627273     0.02900
C634        C  0.50769912  0.47479239  0.00699865     0.02900
C635        C  0.47541156  0.46521635  0.00565573     0.02900
C636        C  0.46583660  0.48814455  0.00538586     0.02900
C637        C  0.32928685  0.13495025  0.33420249     0.02900
C638        C  0.35897201  0.16071092  0.34331515     0.02900
C639        C  0.36287641  0.19139852  0.34677076     0.02900
C640        C  0.33693137  0.19613328  0.34202056     0.02900
C641        C  0.30726250  0.17031411  0.33285293     0.02900
C642        C  0.30340250  0.13966602  0.32904215     0.02900
C643        C  0.17671624  0.36444247  0.66512833     0.02900
C644        C  0.19941594  0.35467705  0.66513154     0.02900
C645        C  0.18961771  0.32205535  0.66660418     0.02900
C646        C  0.15716793  0.29923623  0.66546460     0.02900
C647        C  0.13455456  0.30917705  0.66531360     0.02900
C648        C  0.14430451  0.34175089  0.66407889     0.02900
C649        C  0.10724864  0.34837165  0.62706008     0.24200
C650        C  0.12044555  0.35165859  0.65891230    -0.23900
C651        C  0.10956586  0.36247173  0.68582896     0.19100
C652        C  0.08426372  0.36779018  0.68154889     0.24200
C653        C  0.06893746  0.36174811  0.65021213    -0.23800
C654        C  0.08174637  0.35335799  0.62266760     0.19100
F655        F  0.06882294  0.34861580  0.59173117    -0.13800
F656        F  0.11837879  0.33911312  0.60040912    -0.16100
F657        F  0.07361320  0.37684251  0.70878329    -0.16100
F658        F  0.12230381  0.36618701  0.71672735    -0.13800
C659        C  0.23162678  0.31172084  0.64428437     0.24200
C660        C  0.21348763  0.31225062  0.67146512    -0.23900
C661        C  0.22063365  0.30725776  0.70404126     0.19100
C662        C  0.24687002  0.30365436  0.70958273     0.24200
C663        C  0.26575709  0.30414508  0.68241484    -0.23800
C664        C  0.25732609  0.30738902  0.64960792     0.19100
F665        F  0.27548949  0.30903492  0.62278279    -0.13800
F666        F  0.22556997  0.31727942  0.61275628    -0.16100
F667        F  0.25431858  0.30064403  0.74147393    -0.16100
F668        F  0.20329670  0.30785142  0.73064514    -0.13800
C669        C  0.27418008  0.41684746  0.62285966     0.24200
C670        C  0.29468039  0.43050903  0.65023503    -0.23900
C671        C  0.28469077  0.41620350  0.68210202     0.19100
C672        C  0.25411346  0.39063169  0.68682218     0.24200
C673        C  0.23318412  0.37868490  0.65986759    -0.23800
C674        C  0.24375225  0.39116874  0.62769947     0.19100
F675        F  0.22402120  0.37922099  0.60113146    -0.13800
F676        F  0.28302428  0.42912126  0.59160072    -0.16100
F677        F  0.24438753  0.37871513  0.71807165    -0.16100
F678        F  0.30356778  0.42826222  0.70933091    -0.13800
C679        C  0.05578787  0.25397002  0.70549242     0.24200
C680        C  0.03943079  0.23388087  0.67844230    -0.23900
C681        C  0.05333556  0.24086637  0.64617494     0.19100
C682        C  0.08382720  0.26636197  0.64150878     0.24200
C683        C  0.10065939  0.28539359  0.66886290    -0.23800
C684        C  0.08612368  0.27983884  0.70061553     0.19100
F685        F  0.10214289  0.29832018  0.72726936    -0.13800
F686        F  0.04279713  0.24796262  0.73673213    -0.16100
F687        F  0.09758693  0.27147239  0.61068562    -0.16100
F688        F  0.03848863  0.22146130  0.61963324    -0.13800
C689        C  0.14388692  0.22254135  0.62559553     0.24200
C690        C  0.13270078  0.20161469  0.65293299    -0.23900
C691        C  0.12621309  0.21218794  0.68363300     0.19100
C692        C  0.13383953  0.24385495  0.68773899     0.24200
C693        C  0.14708857  0.26512710  0.66104873    -0.23800
C694        C  0.15079859  0.25397017  0.62961508     0.19100
F695        F  0.16188627  0.27384039  0.60298533    -0.13800
F696        F  0.14924543  0.21291490  0.59530555    -0.16100
F697        F  0.12969699  0.25411107  0.71820603    -0.16100
F698        F  0.11488895  0.19269057  0.71057282    -0.13800
C699        C  0.19226898  0.44602301  0.64294084     0.24200
C700        C  0.19786172  0.46072138  0.67479543    -0.23900
C701        C  0.19882967  0.44439228  0.70305678     0.19100
C702        C  0.19360602  0.41346170  0.69955092     0.24200
C703        C  0.18669791  0.39848056  0.66791972    -0.23800
C704        C  0.18661000  0.41506665  0.63959719     0.19100
F705        F  0.17950704  0.40069546  0.60899015    -0.13800
F706        F  0.18977263  0.46070952  0.61536814    -0.16100
F707        F  0.19363055  0.39746759  0.72718082    -0.16100
F708        F  0.20411598  0.45810546  0.73395741    -0.13800
C709        C  0.47509205  0.07987500  0.95793911     0.24200
C710        C  0.46959604  0.09585303  0.98457135    -0.23900
C711        C  0.96729205  0.08461440  0.01760097     0.19100
C712        C  0.97260254  0.05949698  0.02394561     0.24200
C713        C  0.47930469  0.04459775  0.99744992    -0.23800
C714        C  0.47931250  0.05405475  0.96435193     0.19100
F715        F  0.48483610  0.03909425  0.93835107    -0.13800
F716        F  0.47739590  0.08982597  0.92583904    -0.16100
F717        F  0.97270129  0.05071065  0.05608364    -0.16100
F718        F  0.96224688  0.09935711  0.04416189    -0.13800
C719        C  0.02719637  0.41087581  0.98483577     0.24200
C720        C  0.02674146  0.39841727  0.01677430    -0.23900
C721        C  0.52352432  0.41374023  0.04550565     0.19100
C722        C  0.51870079  0.43957552  0.04226458     0.24200
C723        C  0.01728579  0.45056557  0.01035976    -0.23800
C724        C  0.02258706  0.43681949  0.98176784     0.19100
F725        F  0.02154764  0.44742413  0.95077143    -0.13800
F726        F  0.02950389  0.39648187  0.95634724    -0.16100
F727        F  0.51399296  0.45301530  0.07019912    -0.16100
F728        F  0.52379003  0.40294307  0.07665244    -0.13800
C729        C  0.05701008  0.07686408  0.04109817     0.24200
C730        C  0.04523887  0.06432325  0.00921106    -0.23900
C731        C  0.05864444  0.08318861  0.98081045     0.19100
C732        C  0.08428881  0.11394635  0.98407824     0.24200
C733        C  0.09761487  0.12597651  0.01588426    -0.23800
C734        C  0.08313198  0.10734920  0.04446449     0.19100
F735        F  0.09506533  0.11800308  0.07553714    -0.13800
F736        F  0.04422877  0.05881289  0.06884668    -0.16100
F737        F  0.09758316  0.13078688  0.95570749    -0.16100
F738        F  0.04829091  0.07110891  0.94970060    -0.13800
C739        C  0.43439906  0.41263398  0.02802831     0.24200
C740        C  0.45160459  0.43135443  0.00073695    -0.23900
C741        C  0.44406870  0.41888382  0.96803961     0.19100
C742        C  0.41821931  0.38863450  0.96245621     0.24200
C743        C  0.39966531  0.37046405  0.98958847    -0.23800
C744        C  0.40864794  0.38230074  0.02257660     0.19100
F745        F  0.39102770  0.36567900  0.04945181    -0.13800
F746        F  0.44143283  0.42446813  0.05975661    -0.16100
F747        F  0.41068012  0.37757014  0.93051545    -0.16100
F748        F  0.46066770  0.43683322  0.94138851    -0.13800
C749        C  0.38226781  0.96357459  0.98073148     0.24200
C750        C  0.36887322  0.46487836  0.01190756    -0.23900
C751        C  0.38673232  0.47063135  0.04117038     0.19100
C752        C  0.41795532  0.47709967  0.03902537     0.24200
C753        C  0.43184224  0.47816890  0.00764867    -0.23800
C754        C  0.41361024  0.97050524  0.97866919     0.19100
F755        F  0.42659416  0.97116472  0.94817276    -0.13800
F756        F  0.36589941  0.95803471  0.95182459    -0.16100
F757        F  0.43505412  0.48342135  0.06748733    -0.16100
F758        F  0.37426130  0.47091030  0.07172635    -0.13800
C759        C  0.08253388  0.52093687  0.03106472     0.24200
C760        C  0.06437561  0.01698415  0.00272022    -0.23900
C761        C  0.07762303  0.01993988  0.97056790     0.19100
C762        C  0.10827626  0.02509562  0.96672917     0.24200
C763        C  0.12634586  0.02827600  0.99509203    -0.23800
C764        C  0.11344796  0.52699156  0.02734126     0.19100
F765        F  0.12985946  0.52902978  0.05536216    -0.13800
F766        F  0.06985360  0.51740351  0.06229441    -0.16100
F767        F  0.11995677  0.02607315  0.93540712    -0.16100
F768        F  0.06024516  0.01633160  0.94291197    -0.13800
C769        C  0.31151159  0.08110227  0.35715878     0.24200
C770        C  0.32451644  0.10241339  0.33049248    -0.23900
C771        C  0.32858453  0.09146174  0.29908460     0.19100
C772        C  0.31992303  0.05957229  0.29441608     0.24200
C773        C  0.30664597  0.03797635  0.32105073    -0.23800
C774        C  0.30233170  0.04912162  0.35249177     0.19100
F775        F  0.29021042  0.02939437  0.37918382    -0.13800
F776        F  0.30708982  0.09123505  0.38759524    -0.16100
F777        F  0.32427583  0.04981091  0.26374364    -0.16100
F778        F  0.33989213  0.11142867  0.27257850    -0.13800
C779        C  0.35982572  0.27971010  0.31678448     0.24200
C780        C  0.35950560  0.29381301  0.34786773    -0.23900
C781        C  0.35038401  0.27503703  0.37691855     0.19100
C782        C  0.34208829  0.24300628  0.37495625     0.24200
C783        C  0.34208942  0.22902451  0.34386562    -0.23800
C784        C  0.35077112  0.24753725  0.31482416     0.19100
F785        F  0.35107596  0.23449492  0.28457989    -0.13800
F786        F  0.36776278  0.29669599  0.28797589    -0.16100
F787        F  0.33457289  0.22575276  0.40351127    -0.16100
F788        F  0.34975511  0.28774298  0.40727010    -0.13800
C789        C  0.26492641  0.09547991  0.29168693     0.24200
C790        C  0.27186483  0.11131042  0.32293431    -0.23900
C791        C  0.25234112  0.09608139  0.35061954     0.19100
C792        C  0.22829785  0.06443183  0.34802790     0.24200
C793        C  0.22310965  0.04763715  0.31755434    -0.23800
C794        C  0.24055892  0.06379269  0.28897709     0.19100
F795        F  0.23532171  0.04837225  0.25905081    -0.13800
F796        F  0.28322420  0.10996286  0.26444226    -0.16100
F797        F  0.21022700  0.04999275  0.37547681    -0.16100
F798        F  0.25824097  0.11109444  0.38086023    -0.13800
C799        C  0.43387685  0.26703275  0.32102237     0.24200
C800        C  0.44186161  0.28434414  0.35134648    -0.23900
C801        C  0.42810843  0.26837010  0.38146794     0.19100
C802        C  0.40447606  0.23626173  0.38074332     0.24200
C803        C  0.39463749  0.21991608  0.34995619    -0.23800
C804        C  0.41058946  0.23507332  0.32039119     0.19100
F805        F  0.40143942  0.21971622  0.29040368    -0.13800
F806        F  0.44835934  0.28120387  0.29179608    -0.16100
F807        F  0.38948305  0.22184281  0.40964746    -0.16100
F808        F  0.43613706  0.28427507  0.41122371    -0.13800
C809        C  0.26617205  0.18262717  0.35327838     0.24200
C810        C  0.28057700  0.17565721  0.32651087    -0.23900
C811        C  0.26997510  0.17443145  0.29371343     0.19100
C812        C  0.24471371  0.17947026  0.28781544     0.24200
C813        C  0.23023635  0.18666108  0.31465691    -0.23800
C814        C  0.24165992  0.18865568  0.34744904     0.19100
F815        F  0.22812287  0.19481325  0.37430172    -0.13800
F816        F  0.27520205  0.18259045  0.38528454    -0.16100
F817        F  0.23435352  0.17710233  0.25592706    -0.16100
F818        F  0.28407730  0.16826405  0.26743430    -0.13800
C819        C  0.41969280  0.14571467  0.38449950     0.24200
C820        C  0.43651557  0.14396639  0.35635804    -0.22100
C821        C  0.42761996  0.14800303  0.32412434     0.19100
C822        C  0.40291252  0.15411501  0.32016283     0.24200
C823        C  0.38601449  0.15552836  0.34810982    -0.23800
C824        C  0.39436093  0.15112713  0.38032052     0.19100
F825        F  0.37807579  0.15227602  0.40764215    -0.13800
F826        F  0.42776287  0.14222950  0.41593635    -0.16100
F827        F  0.39598923  0.15948175  0.28896742    -0.16100
F828        F  0.44398843  0.14786761  0.29638733    -0.13800
O829        O  0.04603600  0.68460668  0.34457883    -0.87700
C830        C  0.08481722  0.65298099  0.41206110     0.88300
Mg831      Mg  0.01848996  0.65598811  0.30369312     1.58100
O832        O  0.13487206  0.70851723  0.35228129    -0.87400
O833        O  0.08536950  0.73196573  0.35413078    -0.74800
C834        C  0.10292696  0.60042796  0.23025583     0.93400
O835        O  0.01854815  0.61339891  0.36916498    -0.74600
O836        O  0.07407721  0.59250432  0.23422245    -0.82100
Mg837      Mg  0.03250496  0.66244645  0.39283000     1.58000
C838        C  0.20104845  0.68809529  0.30964419     0.93300
O839        O  0.04292722  0.70756746  0.42068252    -0.80300
H840        H  0.15675382  0.75219143  0.33281889    -0.05700
C841        C  0.10746593  0.61647394  0.32745946     0.88200
O842        O  0.06023386  0.68238054  0.26708230    -0.74900
O843        O  0.08031224  0.67350516  0.39951858    -0.87600
O844        O  0.19227999  0.70066675  0.33225723    -0.80400
C845        C  0.17458600  0.72242597  0.42933635     0.93400
C846        C  0.06473802  0.73197441  0.43525573     0.93300
Mg847      Mg  0.13508237  0.66822763  0.27560413     1.58000
O848        O  0.12502441  0.62383254  0.24581750    -0.80400
O849        O  0.14930736  0.71713741  0.29948727    -0.74600
O850        O  0.15029212  0.72554715  0.43076362    -0.80400
O851        O  0.48328715  0.65491691  0.38510201    -0.82100
O852        O  0.01830208  0.60785400  0.23645395    -0.80500
C853        C  0.14741394  0.72701986  0.32865252     0.87700
O854        O  0.08739827  0.65778664  0.26908831    -0.87600
O855        O  0.12083504  0.64549516  0.32383153    -0.87700
O856        O  0.08156073  0.59833327  0.31307782    -0.74800
Mg857      Mg  0.11529743  0.72364286  0.39174737     1.58000
O858        O  0.17817881  0.70549660  0.40719929    -0.82100
H859        H  0.04869372  0.72320198  0.32412387    -0.05900
O860        O  0.03196914  0.62178061  0.31598543    -0.87400
H861        H  0.01099288  0.57826357  0.33586568    -0.05700
H862        H  0.09897612  0.69411906  0.23817027    -0.05900
C863        C  0.02005731  0.60341190  0.33988315     0.87700
C864        C  0.05921100  0.71352803  0.34043872     0.88300
C865        C  0.08282364  0.67843848  0.25705383     0.88300
H866        H  0.11765055  0.60642724  0.34373310    -0.05800
O867        O  0.10701964  0.64843837  0.40199462    -0.74900
Mg868      Mg  0.05216165  0.60779827  0.27561718     1.58000
H869        H  0.06877909  0.63778257  0.43131198    -0.05900
C870        C  0.46565476  0.64219578  0.35989690     0.93300
O871        O  0.98906510  0.62559309  0.26156501    -0.82100
C872        C  0.99349718  0.61002014  0.23851838     0.93400
O873        O  0.09373921  0.74036017  0.43189729    -0.82100
Mg874      Mg  0.14843041  0.67453306  0.36504797     1.58200
O875        O  0.47403849  0.63026439  0.33615777    -0.80400
O876        O  0.18387600  0.67497822  0.28420946    -0.82100
C877        C  0.11166277  0.53040732  0.21356608    -0.10200
C878        C  0.09817422  0.54884431  0.22203317    -0.04100
C879        C  0.11103926  0.57980092  0.21031321    -0.10200
C880        C  0.13602327  0.59161653  0.18635849     0.10700
C881        C  0.14876567  0.57228502  0.17594187    -0.02000
C882        C  0.13660176  0.54156653  0.18975211     0.10500
C883        C  0.15011154  0.52304315  0.18004166    -0.12000
C884        C  0.17529829  0.53457303  0.15733461    -0.12000
C885        C  0.18821982  0.56524524  0.14391849     0.10500
C886        C  0.17480627  0.58429616  0.15316449    -0.02000
C887        C  0.14879162  0.62223149  0.17287726    -0.12100
C888        C  0.17371613  0.63370130  0.14971312    -0.12100
C889        C  0.18711103  0.61513489  0.13942054     0.10700
C890        C  0.21277128  0.62668008  0.11621781    -0.10200
C891        C  0.22639293  0.60794617  0.10845274    -0.04100
C892        C  0.21413422  0.57726644  0.12136493    -0.10200
H893        H  0.14123464  0.99944139  0.18995190     0.08000
H894        H  0.18497177  0.51944007  0.15078072     0.08000
H895        H  0.13937561  0.63746537  0.17998608     0.08200
H896        H  0.18282442  0.65759055  0.14051836     0.08200
H897        H  0.08034051  0.54065620  0.24175856     0.04600
H898        H  0.24503029  0.61621531  0.08964044     0.04600
C899        C  0.46632839  0.58898053  0.21785579    -0.10200
C900        C  0.44839932  0.55789750  0.22963588    -0.04100
C901        C  0.41747067  0.53815281  0.21922615    -0.10200
C902        C  0.40462815  0.54869869  0.19430721     0.10700
C903        C  0.42304204  0.57977246  0.18118150    -0.02000
C904        C  0.45397066  0.60016734  0.19325532     0.10500
C905        C  0.47164084  0.63110631  0.18053649    -0.12000
C906        C  0.45933716  0.64163290  0.15573407    -0.12000
C907        C  0.42872182  0.62179434  0.14349190     0.10500
C908        C  0.41017825  0.59080609  0.15669267    -0.02000
C909        C  0.37380151  0.52909273  0.18241013    -0.12100
C910        C  0.36151511  0.53959901  0.15752604    -0.12100
C911        C  0.37934736  0.57034469  0.14431724     0.10700
C912        C  0.36737945  0.58107472  0.11866411    -0.10200
C913        C  0.38545300  0.61201554  0.10687420    -0.04100
C914        C  0.41622594  0.63197960  0.11803472    -0.10200
H915        H  0.99533074  0.64715357  0.18928090     0.08000
H916        H  0.47384949  0.66554928  0.14636819     0.08000
H917        H  0.35923043  0.00525837  0.19189663     0.08200
H918        H  0.33778935  0.52356226  0.14887649     0.08200
H919        H  0.45737174  0.55021397  0.25008438     0.04600
H920        H  0.37686664  0.61930859  0.08573768     0.04600
O921        O  0.03788194  0.86685499  0.31324795    -0.87700
C922        C  0.04821343  0.95473208  0.31262619     0.88300
Mg923      Mg  0.03748870  0.84350271  0.35927375     1.58100
O924        O  0.10997631  0.94421863  0.28033069    -0.87400
O925        O  0.05434990  0.87571877  0.26143447    -0.74800
C926        C  0.17055275  0.94231302  0.43174068     0.93400
O927        O  0.01814919  0.89940547  0.37044766    -0.74600
O928        O  0.14360273  0.91913502  0.43950418    -0.82100
Mg929      Mg  0.00627485  0.88505774  0.31419922     1.58000
C930        C  0.19840064  0.51384301  0.31614375     0.93300
O931        O  0.98941935  0.87080500  0.25953953    -0.80300
H932        H  0.12822838  0.92614954  0.24749613    -0.05700
C933        C  0.12135121  0.97386583  0.37999535     0.88200
O934        O  0.08744648  0.85226018  0.34731989    -0.74900
O935        O  0.04468362  0.93024230  0.29885822    -0.87600
O936        O  0.17714355  0.50422787  0.29407946    -0.80400
C937        C  0.10584066  0.00516256  0.23715013     0.93400
C938        C  0.99379741  0.88684424  0.23299241     0.93300
Mg939      Mg  0.15753981  0.94561341  0.35084618     1.58000
O940        O  0.17517795  0.95835119  0.40516203    -0.80400
O941        O  0.14610775  0.93260751  0.29452864    -0.74600
O942        O  0.08110528  0.97798150  0.23467377    -0.80400
O943        O  0.46691846  0.83544340  0.32661143    -0.82100
O944        O  0.08224911  0.85229398  0.43041473    -0.80500
C945        C  0.12799507  0.93410665  0.27291168     0.87700
O946        O  0.11865675  0.90038255  0.36602656    -0.87600
O947        O  0.12636331  0.96445570  0.35299665    -0.87700
O948        O  0.11070039  0.95549970  0.40502602    -0.74800
Mg949      Mg  0.06699093  0.92761556  0.25253818     1.58000
O950        O  0.12569586  0.51212559  0.26029295    -0.82100
H951        H  0.03948936  0.83351347  0.28465245    -0.05900
O952        O  0.05409872  0.88766571  0.38547815    -0.87400
H953        H  0.03657591  0.90723525  0.41736838    -0.05700
H954        H  0.13531690  0.87378037  0.34561150    -0.05900
C955        C  0.03645371  0.89842234  0.39227713     0.87700
C956        C  0.04362714  0.85751566  0.28659543     0.88300
C957        C  0.11488143  0.87553056  0.35296089     0.88300
H958        H  0.12608620  0.99805511  0.38235956    -0.05800
O959        O  0.07547940  0.97780709  0.31927415    -0.74900
Mg960      Mg  0.09709981  0.90317222  0.41298038     1.58000
H961        H  0.02762396  0.95618706  0.32001388    -0.05900
C962        C  0.46587859  0.81837904  0.35086764     0.93300
O963        O  0.03630983  0.81895023  0.40670582    -0.82100
C964        C  0.05692191  0.82547207  0.42894280     0.93400
O965        O  0.02052946  0.91049340  0.22548871    -0.82100
Mg966      Mg  0.12582445  0.98795539  0.30740374     1.58200
O967        O  0.48711098  0.82971989  0.37291515    -0.80400
O968        O  0.19694082  0.49543811  0.33919125    -0.82100
O969        O  0.33151310  0.96219994  0.35355607    -0.87700
C970        C  0.26067516  0.87025780  0.35266542     0.88300
Mg971      Mg  0.35574998  0.98814261  0.30902455     1.58100
O972        O  0.33430165  0.88821041  0.38548347    -0.87400
O973        O  0.33921847  0.95374663  0.40513967    -0.74800
C974        C  0.39976163  0.89475920  0.23348640     0.93400
O975        O  0.28330067  0.92650578  0.29437435    -0.74600
O976        O  0.39609726  0.91799553  0.22547530    -0.82100
Mg977      Mg  0.28113855  0.93810015  0.35064077     1.58000
C978        C  0.36440598  0.82643043  0.34878415     0.93300
O979        O  0.27314754  0.94932140  0.40413219    -0.80300
H980        H  0.36961854  0.90970414  0.41824601    -0.05700
C981        C  0.32072563  0.86072235  0.28565351     0.88200
O982        O  0.39866993  0.98284901  0.32112648    -0.74900
O983        O  0.27976895  0.89558897  0.36621374    -0.87600
O984        O  0.35004650  0.83383225  0.37056607    -0.80400
C985        C  0.27074696  0.82210664  0.42628776     0.93400
C986        C  0.26609870  0.93718808  0.43318020     0.93300
Mg987      Mg  0.38466907  0.89320823  0.31489718     1.58000
O988        O  0.38997439  0.88049190  0.26123407    -0.80400
O989        O  0.38373412  0.90550910  0.37117560    -0.74600
O990        O  0.27063419  0.84822017  0.42970557    -0.80400
O991        O  0.28451640  0.98473893  0.33930833    -0.82100
O992        O  0.39763741  0.98492968  0.23762054    -0.80500
C993        C  0.36260352  0.90132192  0.39282476     0.87700
O994        O  0.38690508  0.93647359  0.30017882    -0.87600
O995        O  0.33454817  0.87029501  0.31263702    -0.87700
O996        O  0.32746837  0.87935505  0.26099187    -0.74800
Mg997      Mg  0.30388723  0.90062564  0.41339225     1.58000
O998        O  0.28659650  0.81769568  0.40361468    -0.82100
H999        H  0.36300716  0.99700557  0.38299204    -0.05900
O1000       O  0.33295470  0.94489947  0.28038145    -0.87400
H1001       H  0.29798488  0.92333705  0.24726558    -0.05700
H1002       H  0.42845269  0.96512216  0.32183805    -0.05900
C1003       C  0.30471148  0.93147329  0.27280620     0.87700
C1004       C  0.34525970  0.97219480  0.38048972     0.88300
C1005       C  0.40576048  0.96157145  0.31430798     0.88300
H1006       H  0.30249271  0.83610964  0.28302230    -0.05800
O1007       O  0.26776373  0.84900728  0.34579755    -0.74900
Mg1008     Mg  0.36360687  0.93249733  0.25311697     1.58000
H1009       H  0.23779733  0.86651131  0.34561049    -0.05900
C1010       C  0.30159422  0.50535385  0.31784983     0.93300
O1011       O  0.38103028  0.51522385  0.26300048    -0.82100
C1012       C  0.39743153  0.01100216  0.24083281     0.93400
O1013       O  0.27194631  0.91556657  0.44213285    -0.82100
Mg1014     Mg  0.31113142  0.84451365  0.35748881     1.58200
O1015       O  0.31701525  0.49923070  0.29610882    -0.80400
O1016       O  0.38051405  0.84587353  0.32597234    -0.82100
C1017       C  0.46574023  0.87984066  0.21320113    -0.10200
C1018       C  0.44893576  0.89468440  0.22401421    -0.04100
C1019       C  0.41848089  0.88492406  0.21256558    -0.10200
C1020       C  0.40451514  0.85996948  0.18880745     0.10700
C1021       C  0.42163719  0.84528201  0.17678707    -0.02000
C1022       C  0.45244718  0.85538643  0.18885844     0.10500
C1023       C  0.46887387  0.84045060  0.17671857    -0.12000
C1024       C  0.45542491  0.81615543  0.15284449    -0.12000
C1025       C  0.42475018  0.80539241  0.14095038     0.10500
C1026       C  0.40742866  0.81958251  0.15364670    -0.02000
C1027       C  0.37359151  0.84871349  0.17753680    -0.12100
C1028       C  0.35973038  0.82356991  0.15465244    -0.12100
C1029       C  0.37623426  0.80868100  0.14251928     0.10700
C1030       C  0.36236595  0.78310796  0.11946479    -0.10200
C1031       C  0.37939920  0.76872708  0.10795177    -0.04100
C1032       C  0.41078828  0.78057581  0.11689057    -0.10200
H1033       H  0.49240985  0.84769137  0.18539812     0.08000
H1034       H  0.46902020  0.80534511  0.14435460     0.08000
H1035       H  0.35992218  0.85936883  0.18630379     0.08200
H1036       H  0.33578870  0.81555851  0.14680853     0.08200
H1037       H  0.45863740  0.91232645  0.24399827     0.04600
H1038       H  0.36936639  0.75057466  0.08848773     0.04600
O1039       O  0.29588261  0.50095401  0.98176306    -0.87700
C1040       C  0.20567611  0.92683735  0.97634863     0.88300
Mg1041     Mg  0.32095546  0.52113622  0.02764072     1.58100
O1042       O  0.21787830  0.50110835  0.94832416    -0.87400
O1043       O  0.28553050  0.51129301  0.93165394    -0.74800
C1044       C  0.22320630  0.55625975  0.10344094     0.93400
O1045       O  0.25980117  0.94546367  0.03507826    -0.74600
O1046       O  0.24781160  0.55513920  0.11087606    -0.82100
Mg1047     Mg  0.27367847  0.95082111  0.97873592     1.58000
C1048       C  0.15596511  0.52744478  0.99209994     0.93300
O1049       O  0.28970849  0.95489612  0.92465868    -0.80300
H1050       H  0.23942045  0.53946361  0.91908319    -0.05700
C1051       C  0.19179751  0.97830131  0.04784858     0.88200
O1052       O  0.31431762  0.56430428  0.02065616    -0.74900
O1053       O  0.23056452  0.94911425  0.96566124    -0.87600
O1054       O  0.15841518  0.00956465  0.97018379    -0.80400
C1055       C  0.15502380  0.93559144  0.90565649     0.93400
C1056       C  0.27302676  0.94021461  0.89956685     0.93300
Mg1057     Mg  0.22263603  0.54437342  0.02439781     1.58000
O1058       O  0.20653524  0.54083870  0.07862710    -0.80400
O1059       O  0.23594746  0.54957227  0.96805559    -0.74600
O1060       O  0.18210488  0.93790196  0.90247132    -0.80400
O1061       O  0.31936640  0.95259008  0.98957775    -0.82100
O1062       O  0.31424582  0.55787041  0.09986853    -0.80500
C1063       C  0.23109806  0.53019612  0.94395478     0.87700
O1064       O  0.26589322  0.54624550  0.03727662    -0.87600
O1065       O  0.20040554  0.99411713  0.02182327    -0.87700
O1066       O  0.21041291  0.98477680  0.07248753    -0.74800
Mg1067     Mg  0.23341055  0.97341453  0.92011494     1.58000
O1068       O  0.14880424  0.94999210  0.92872291    -0.82100
H1069       H  0.32804529  0.53728067  0.95441640    -0.05900
O1070       O  0.27746402  0.99380479  0.05511908    -0.87400
H1071       H  0.25517946  0.95518313  0.08391021    -0.05700
H1072       H  0.29310452  0.59112245  0.02205006    -0.05900
C1073       C  0.26401944  0.96465282  0.05923364     0.87700
C1074       C  0.30425678  0.51735106  0.95611856     0.88300
C1075       C  0.29103116  0.56827829  0.02666927     0.88300
H1076       H  0.16789697  0.95861978  0.04977727    -0.05800
O1077       O  0.18231231  0.93047199  0.98300451    -0.74900
Mg1078     Mg  0.26267387  0.52244862  0.08322863     1.58000
H1079       H  0.20397100  0.90411088  0.98067545    -0.05900
C1080       C  0.33927175  0.96614295  0.01271433     0.93300
O1081       O  0.34644092  0.54323508  0.07552365    -0.82100
C1082       C  0.34085197  0.55901967  0.09745528     0.93400
O1083       O  0.24872767  0.94182813  0.89214904    -0.82100
Mg1084     Mg  0.17474231  0.97300734  0.97635489     1.58200
O1085       O  0.33575420  0.48341954  0.03459212    -0.80400
O1086       O  0.17701823  0.54203979  0.01390153    -0.82100
O1087       O  0.28712258  0.80597407  0.99451335    -0.87700
C1088       C  0.25127161  0.74038180  0.92108108     0.88300
Mg1089     Mg  0.31216106  0.80142248  0.03582396     1.58100
O1090       O  0.19886414  0.74307872  0.98110121    -0.87400
O1091       O  0.24997304  0.81664413  0.98452532    -0.74800
C1092       C  0.22334475  0.65604345  0.09639137     0.93400
O1093       O  0.31349916  0.76254439  0.96659485    -0.74600
O1094       O  0.25267882  0.67656944  0.09429549    -0.82100
Mg1095     Mg  0.30292080  0.80055071  0.94570490     1.58000
C1096       C  0.12915562  0.65480541  0.01819115     0.93300
O1097       O  0.29579537  0.83862254  0.91921632    -0.80300
H1098       H  0.17900745  0.76551415  0.00436794    -0.05700
C1099       C  0.22331538  0.67512550  0.00100314     0.88200
O1100       O  0.26934232  0.78480383  0.07078199    -0.74900
O1101       O  0.25530744  0.76513671  0.93472598    -0.87600
O1102       O  0.13931293  0.67394558  0.99373563    -0.80400
C1103       C  0.16205767  0.72001479  0.90189803     0.93400
C1104       C  0.27457437  0.84148929  0.90399343     0.93300
Mg1105     Mg  0.19572320  0.69759300  0.05491095     1.58000
O1106       O  0.20255477  0.65941338  0.08099216    -0.80400
O1107       O  0.18476943  0.73527992  0.03420666    -0.74600
O1108       O  0.18537208  0.74834789  0.90315710    -0.80400
O1109       O  0.35242564  0.83994804  0.95867336    -0.82100
O1110       O  0.31140784  0.74873317  0.09792826    -0.80500
C1111       C  0.18710350  0.74856858  0.00617998     0.87700
O1112       O  0.24308483  0.73288497  0.06561110    -0.87600
O1113       O  0.21117259  0.69171455  0.00600718    -0.87700
O1114       O  0.24821146  0.68089655  0.01604613    -0.74800
Mg1115     Mg  0.22060887  0.78014798  0.94405325     1.58000
O1116       O  0.15871180  0.69867249  0.92211878    -0.82100
H1117       H  0.28540774  0.84198349  0.01737152    -0.05900
O1118       O  0.29867374  0.75409936  0.01951107    -0.87400
H1119       H  0.31857246  0.73171357  0.99620369    -0.05700
H1120       H  0.23046380  0.75605349  0.09847242    -0.05900
C1121       C  0.31062466  0.74878221  0.99446640     0.87700
C1122       C  0.27495766  0.82254583  0.99948875     0.88300
C1123       C  0.24713672  0.75758750  0.07946694     0.88300
H1124       H  0.21292469  0.65578885  0.98299963    -0.05800
O1125       O  0.22904588  0.71323461  0.92987786    -0.74900
Mg1126     Mg  0.27722895  0.71722063  0.05663857     1.58000
H1127       H  0.26794063  0.74180952  0.90212662    -0.05900
C1128       C  0.36875312  0.84179862  0.98400404     0.93300
O1129       O  0.33919484  0.79805713  0.07831151    -0.82100
C1130       C  0.33522046  0.77670379  0.09883283     0.93400
O1131       O  0.24531117  0.82072953  0.90642233    -0.82100
Mg1132     Mg  0.18595690  0.69572660  0.96470360     1.58200
O1133       O  0.35791232  0.82043925  0.00620372    -0.80400
O1134       O  0.14648764  0.65855240  0.04317036    -0.82100
O1135       O  0.01549248  0.70811115  0.99164122    -0.87700
C1136       C  0.48852595  0.74631776  0.91963328     0.88300
Mg1137     Mg  0.98473929  0.68178141  0.03231060     1.58100
O1138       O  0.04221255  0.79716166  0.98064384    -0.87400
O1139       O  0.06361797  0.74560749  0.98245800    -0.74800
C1140       C  0.42949094  0.77038823  0.09629402     0.93400
O1141       O  0.44666245  0.68195175  0.96339125    -0.74600
O1142       O  0.42014414  0.74090526  0.09290769    -0.82100
Mg1143     Mg  0.49574101  0.69349197  0.94254847     1.58000
C1144       C  0.02431611  0.86698068  0.01940135     0.93300
O1145       O  0.04130177  0.70169156  0.91605821    -0.80300
H1146       H  0.08409703  0.81696400  0.00331105    -0.05700
C1147       C  0.45027303  0.77316676  0.00057086     0.88200
O1148       O  0.01027972  0.72394962  0.06849892    -0.74900
O1149       O  0.50848969  0.74171098  0.93306767    -0.87600
O1150       O  0.03445978  0.85714170  0.99530885    -0.80400
C1151       C  0.05915308  0.83607615  0.90265741     0.93400
C1152       C  0.06585800  0.72335164  0.90133420     0.93300
Mg1153     Mg  0.49903786  0.79934005  0.05465116     1.58000
O1154       O  0.45405168  0.79175717  0.08139328    -0.80400
O1155       O  0.04789534  0.81082851  0.03381366    -0.74600
O1156       O  0.06329278  0.81223328  0.90305439    -0.80400
O1157       O  0.48579156  0.64358592  0.95406631    -0.82100
O1158       O  0.43222434  0.68225535  0.09472612    -0.80500
C1159       C  0.05913400  0.80877047  0.00553174     0.87700
O1160       O  0.48598815  0.75120252  0.06362995    -0.87600
O1161       O  0.47874658  0.78511260  0.00563514    -0.87700
O1162       O  0.43058829  0.74762317  0.01479764    -0.74800
Mg1163     Mg  0.05806273  0.77616753  0.94297594     1.58000
O1164       O  0.04102437  0.83943402  0.92313637    -0.82100
H1165       H  0.05216282  0.70911505  0.01430421    -0.05900
O1166       O  0.45201838  0.69606860  0.01651093    -0.87400
H1167       H  0.41029666  0.67619792  0.99345054    -0.05700
H1168       H  0.02017998  0.76268657  0.09705434    -0.05900
C1169       C  0.43526678  0.68435727  0.99148629     0.87700
C1170       C  0.04394948  0.72012803  0.99679567     0.88300
C1171       C  0.00563804  0.74644453  0.07757378     0.88300
H1172       H  0.44206683  0.78425815  0.98315197    -0.05800
O1173       O  0.48391269  0.76877414  0.92895820    -0.74900
Mg1174     Mg  0.43636867  0.71722790  0.05428293     1.58000
H1175       H  0.47370893  0.72998751  0.90035731    -0.05900
C1176       C  0.47079320  0.62652032  0.97908345     0.93300
O1177       O  0.45320770  0.65385978  0.07463821    -0.82100
C1178       C  0.43614957  0.65832506  0.09568530     0.93400
O1179       O  0.07464830  0.75273478  0.90451125    -0.82100
Mg1180     Mg  0.50927079  0.81123746  0.96490752     1.58200
O1181       O  0.45880176  0.63654851  0.00102359    -0.80400
O1182       O  0.00983637  0.84930462  0.04418720    -0.82100
O1183       O  0.16725857  0.62886801  0.68651203    -0.87700
C1184       C  0.09516288  0.53670511  0.68753782     0.88300
Mg1185     Mg  0.19076859  0.65505355  0.64217865     1.58100
O1186       O  0.16866412  0.55180153  0.71860492    -0.87400
O1187       O  0.17565185  0.61851559  0.73729162    -0.74800
C1188       C  0.22958408  0.55994727  0.56509365     0.93400
O1189       O  0.11619124  0.59264792  0.62895576    -0.74600
O1190       O  0.22706947  0.58395152  0.55797817    -0.82100
Mg1191     Mg  0.11699555  0.60483729  0.68517079     1.58000
C1192       C  0.19838875  0.99111391  0.67785932     0.93300
O1193       O  0.11386404  0.61839397  0.73892965    -0.80300
H1194       H  0.20524863  0.57337086  0.74983156    -0.05700
C1195       C  0.15072718  0.52575814  0.61875974     0.88200
O1196       O  0.23290911  0.64805027  0.65221655    -0.74900
O1197       O  0.11587363  0.56204854  0.69951333    -0.87600
O1198       O  0.18131469  0.99451865  0.69994528    -0.80400
C1199       C  0.10362823  0.98702525  0.76004198     0.93400
C1200       C  0.10322138  0.60323638  0.76604252     0.93300
Mg1201     Mg  0.21565605  0.55764792  0.64520659     1.58000
O1202       O  0.21661344  0.54342699  0.59093019    -0.80400
O1203       O  0.21760940  0.57004340  0.70169733    -0.74600
O1204       O  0.10451363  0.51366292  0.76241328    -0.80400
O1205       O  0.11848882  0.65047168  0.67318233    -0.82100
O1206       O  0.22978886  0.64964589  0.57015648    -0.80500
C1207       C  0.19726921  0.56516116  0.72458663     0.87700
O1208       O  0.21754929  0.60079275  0.63202072    -0.87600
O1209       O  0.16551533  0.53424806  0.64535380    -0.87700
O1210       O  0.15748107  0.54495598  0.59452023    -0.74800
Mg1211     Mg  0.13921648  0.56558785  0.74615890     1.58000
O1212       O  0.11934217  0.98155450  0.73795357    -0.82100
H1213       H  0.20047559  0.66209099  0.71596018    -0.05900
O1214       O  0.16547856  0.61195158  0.61296460    -0.87400
H1215       H  0.12953262  0.59039775  0.58100271    -0.05700
H1216       H  0.26064585  0.62794398  0.65108270    -0.05900
C1217       C  0.13699594  0.59836303  0.60641887     0.87700
C1218       C  0.18183980  0.63765904  0.71318705     0.88300
C1219       C  0.23812498  0.62562683  0.64497305     0.88300
H1220       H  0.13164644  0.50152792  0.61604579    -0.05800
O1221       O  0.10039657  0.51410983  0.68125917    -0.74900
Mg1222     Mg  0.19466118  0.59798056  0.58557892     1.58000
H1223       H  0.07241753  0.53395764  0.68168161    -0.05900
C1224       C  0.13429636  0.67200965  0.65201216     0.93300
O1225       O  0.21621715  0.68212596  0.59609670    -0.82100
C1226       C  0.23154074  0.67657473  0.57365386     0.93400
O1227       O  0.10708665  0.58013470  0.77383999    -0.82100
Mg1228     Mg  0.14331909  0.50812902  0.69062980     1.58200
O1229       O  0.15421960  0.67035732  0.63249985    -0.80400
O1230       O  0.21304080  0.01182523  0.65568985    -0.82100
C1231       C  0.08555588  0.71382394  0.88155384    -0.10200
C1232       C  0.11676489  0.72620821  0.89166622    -0.04100
C1233       C  0.13480381  0.71271422  0.88080305    -0.10200
C1234       C  0.12198163  0.68725585  0.85748474     0.10700
C1235       C  0.09110795  0.67598682  0.84500184    -0.02000
C1236       C  0.07284968  0.68939669  0.85694046     0.10500
C1237       C  0.04252057  0.67820293  0.84381731    -0.12000
C1238       C  0.03035030  0.65430573  0.81936185    -0.12000
C1239       C  0.04779145  0.64024687  0.80763872     0.10500
C1240       C  0.07815692  0.65066730  0.82125472    -0.02000
C1241       C  0.13922595  0.67282682  0.84637868    -0.12100
C1242       C  0.12649595  0.64790949  0.82316935    -0.12100
C1243       C  0.09605096  0.63651247  0.81037387     0.10700
C1244       C  0.08330725  0.61179379  0.78632031    -0.10200
C1245       C  0.05311897  0.60128482  0.77367446    -0.04100
C1246       C  0.03568383  0.61582941  0.78291068    -0.10200
H1247       H  0.02817123  0.68830247  0.85189927     0.08000
H1248       H  0.00689735  0.64658318  0.81012669     0.08000
H1249       H  0.16287782  0.68098437  0.85531252     0.08200
H1250       H  0.14067342  0.63753329  0.81533621     0.08200
H1251       H  0.12588570  0.74417753  0.91136658     0.04600
H1252       H  0.04436785  0.58353730  0.75374567     0.04600
C1253       C  0.12891820  0.91427434  0.88342570    -0.10200
C1254       C  0.11037842  0.88282575  0.89376270    -0.04100
C1255       C  0.07970572  0.86354343  0.88179773    -0.10200
C1256       C  0.06762352  0.87537759  0.85758691     0.10700
C1257       C  0.08688612  0.90662846  0.84529550    -0.02000
C1258       C  0.11777458  0.92609268  0.85798782     0.10500
C1259       C  0.13649351  0.95693492  0.84524166    -0.12000
C1260       C  0.12524410  0.96821088  0.81999074    -0.12000
C1261       C  0.09437754  0.94957601  0.80779732     0.10500
C1262       C  0.07475322  0.91885342  0.82126458    -0.02000
C1263       C  0.03663361  0.85689111  0.84578416    -0.12100
C1264       C  0.02468300  0.86894506  0.82231377    -0.12100
C1265       C  0.04336483  0.89983977  0.80980596     0.10700
C1266       C  0.03157892  0.91205035  0.78568677    -0.10200
C1267       C  0.05108347  0.94253291  0.77285375    -0.04100
C1268       C  0.08260079  0.96070169  0.78231265    -0.10200
H1269       H  0.16024813  0.97227551  0.85423206     0.08000
H1270       H  0.14065999  0.99192112  0.81053874     0.08000
H1271       H  0.02143366  0.83287811  0.85456216     0.08200
H1272       H  0.50059041  0.85392268  0.81411778     0.08200
H1273       H  0.11847994  0.87450200  0.91443198     0.04600
H1274       H  0.04271859  0.95066864  0.75225194     0.04600
O1275       O  0.47385659  0.62157336  0.67226976    -0.87700
C1276       C  0.40721274  0.58488582  0.74419502     0.88300
Mg1277     Mg  0.47002852  0.64725253  0.63112729     1.58100
O1278       O  0.41081579  0.53260648  0.68441245    -0.87400
O1279       O  0.48370387  0.58358606  0.68184106    -0.74800
C1280       C  0.32689734  0.55823439  0.56790302     0.93400
O1281       O  0.43087085  0.64867752  0.69982405    -0.74600
O1282       O  0.34736246  0.58768146  0.57079900    -0.82100
Mg1283     Mg  0.46781253  0.63704439  0.72114994     1.58000
C1284       C  0.32369281  0.96211670  0.64697281     0.93300
O1285       O  0.00487756  0.62903119  0.74811679    -0.80300
H1286       H  0.43322370  0.51233935  0.66199234    -0.05700
C1287       C  0.34356442  0.55686836  0.66378754     0.88200
O1288       O  0.45364846  0.60438123  0.59567093    -0.74900
O1289       O  0.43204210  0.58909254  0.73101506    -0.87600
O1290       O  0.34337498  0.97233836  0.67078961    -0.80400
C1291       C  0.38781710  0.49560160  0.76374306     0.93400
C1292       C  0.50705380  0.60715858  0.76309830     0.93300
Mg1293     Mg  0.36660155  0.52936599  0.61022061     1.58000
O1294       O  0.32950953  0.53678116  0.58315687    -0.80400
O1295       O  0.40358229  0.51804973  0.63145792    -0.74600
O1296       O  0.41552537  0.51960977  0.76282820    -0.80400
O1297       O  0.00759270  0.68674804  0.70924502    -0.82100
O1298       O  0.41851319  0.64749607  0.56877603    -0.80500
C1299       C  0.41649378  0.52056495  0.65968189     0.87700
O1300       O  0.40207965  0.57748066  0.60029603    -0.87600
O1301       O  0.35990314  0.54446072  0.65899277    -0.87700
O1302       O  0.34988283  0.58229272  0.64909814    -0.74800
Mg1303     Mg  0.44696633  0.55414184  0.72188488     1.58000
O1304       O  0.36668663  0.49142818  0.74301452    -0.82100
H1305       H  0.50953654  0.61959439  0.64955743    -0.05900
O1306       O  0.42285481  0.63357393  0.64699766    -0.87400
H1307       H  0.40093467  0.65428294  0.66959397    -0.05700
H1308       H  0.42563267  0.56532311  0.56758082    -0.05900
C1309       C  0.41754652  0.64589210  0.67176109     0.87700
C1310       C  0.49006580  0.60906057  0.66724349     0.88300
C1311       C  0.42681002  0.58187445  0.58669607     0.88300
H1312       H  0.32399236  0.54627441  0.68134338    -0.05800
O1313       O  0.38042059  0.56228480  0.73522940    -0.74900
Mg1314     Mg  0.38672285  0.61208606  0.60928180     1.58000
H1315       H  0.40827164  0.60166166  0.76296150    -0.05900
C1316       C  0.01025465  0.70342725  0.68384289     0.93300
O1317       O  0.46731178  0.67507322  0.58888259    -0.82100
C1318       C  0.44637071  0.67138036  0.56816046     0.93400
O1319       O  0.48623385  0.57791500  0.76002434    -0.82100
Mg1320     Mg  0.36370074  0.51894634  0.70035527     1.58200
O1321       O  0.98934331  0.69314671  0.66130767    -0.80400
O1322       O  0.32722723  0.97952186  0.62192118    -0.82100
O1323       O  0.37764524  0.85081852  0.67584010    -0.87700
C1324       C  0.41461131  0.82113948  0.74627660     0.88300
Mg1325     Mg  0.35216430  0.82127743  0.63427354     1.58100
O1326       O  0.46683154  0.87656025  0.68719160    -0.87400
O1327       O  0.41580811  0.89873972  0.68562079    -0.74800
C1328       C  0.44130226  0.76690000  0.56754424     0.93400
O1329       O  0.35107867  0.78056368  0.70161429    -0.74600
O1330       O  0.41201556  0.75781637  0.57066103    -0.82100
Mg1331     Mg  0.36253793  0.82942263  0.72426656     1.58000
C1332       C  0.03724433  0.85891056  0.64798111     0.93300
O1333       O  0.37060802  0.87466601  0.75197267    -0.80300
H1334       H  0.48823503  0.91973605  0.66658982    -0.05700
C1335       C  0.44196992  0.78417785  0.66432078     0.88200
O1336       O  0.39501559  0.84779994  0.59922976    -0.74900
O1337       O  0.41041651  0.84180844  0.73361880    -0.87600
O1338       O  0.02685826  0.86745750  0.67304039    -0.80400
C1339       C  0.50397426  0.89142342  0.76529901     0.93400
C1340       C  0.39202484  0.89930790  0.76684049     0.93300
Mg1341     Mg  0.47015905  0.83549351  0.61198686     1.58000
O1342       O  0.46246394  0.79105511  0.58321912    -0.80400
O1343       O  0.48219266  0.88422844  0.63463077    -0.74600
O1344       O  0.48041284  0.89581770  0.76525521    -0.80400
O1345       O  0.31282877  0.81962827  0.71317333    -0.82100
O1346       O  0.35337807  0.77096899  0.56913711    -0.80500
C1347       C  0.47954717  0.89458037  0.66324440     0.87700
O1348       O  0.42224299  0.82332954  0.60304928    -0.87600
O1349       O  0.45490250  0.81310195  0.66015163    -0.87700
O1350       O  0.41655121  0.76540465  0.64947503    -0.74800
Mg1351     Mg  0.44524582  0.89185651  0.72510011     1.58000
O1352       O  0.50716950  0.87328649  0.74453840    -0.82100
H1353       H  0.37982339  0.88863759  0.65396734    -0.05900
O1354       O  0.36583071  0.78759143  0.64865485    -0.87400
H1355       H  0.34552821  0.74482431  0.67021669    -0.05700
H1356       H  0.43437817  0.85935888  0.57154437    -0.05900
C1357       C  0.35376833  0.76993781  0.67308784     0.87700
C1358       C  0.39026871  0.87963384  0.67123373     0.88300
C1359       C  0.41778849  0.84376186  0.59018448     0.88300
H1360       H  0.45205528  0.77477070  0.68155817    -0.05800
O1361       O  0.43691577  0.81656115  0.73677795    -0.74900
Mg1362     Mg  0.38757390  0.77314913  0.60999292     1.58000
H1363       H  0.39803323  0.80565566  0.76499568    -0.05900
C1364       C  0.29626806  0.80550796  0.68759067     0.93300
O1365       O  0.32463501  0.79069565  0.59125482    -0.82100
C1366       C  0.32907675  0.77418708  0.56935335     0.93400
O1367       O  0.42125360  0.90816825  0.76371447    -0.82100
Mg1368     Mg  0.47999324  0.84242651  0.70199344     1.58200
O1369       O  0.30663615  0.79463354  0.66472738    -0.80400
O1370       O  0.01994221  0.84557838  0.62260067    -0.82100
C1371       C  0.28187153  0.91965699  0.88082731    -0.10200
C1372       C  0.27063888  0.88916776  0.89366053    -0.04100
C1373       C  0.28426288  0.87080026  0.88444801    -0.10200
C1374       C  0.30882317  0.88259868  0.85993241     0.10700
C1375       C  0.32004719  0.91336202  0.84635967    -0.02000
C1376       C  0.30666932  0.93202640  0.85709217     0.10500
C1377       C  0.31865697  0.96277958  0.84421453    -0.12000
C1378       C  0.34311792  0.97489623  0.82074752    -0.12000
C1379       C  0.35657635  0.95677257  0.80955354     0.10500
C1380       C  0.34514259  0.92581789  0.82251163    -0.02000
C1381       C  0.32220676  0.86445459  0.84828171    -0.12100
C1382       C  0.34618164  0.87630843  0.82399620    -0.12100
C1383       C  0.35800794  0.90693439  0.81077244     0.10700
C1384       C  0.38242534  0.91933044  0.78618681    -0.10200
C1385       C  0.39448992  0.95048207  0.77517620    -0.04100
C1386       C  0.38113402  0.96880687  0.78552113    -0.10200
H1387       H  0.30896882  0.97762194  0.85198313     0.08000
H1388       H  0.35161468  0.99872510  0.81157635     0.08000
H1389       H  0.31390838  0.84069018  0.85746307     0.08200
H1390       H  0.35572346  0.86140728  0.81600262     0.08200
H1391       H  0.25280819  0.88073521  0.91337114     0.04600
H1392       H  0.41209628  0.95926118  0.75522216     0.04600
C1393       C  0.05174657  0.79977203  0.45171389    -0.10200
C1394       C  0.06646538  0.78255101  0.44253565    -0.04100
C1395       C  0.05553922  0.75198189  0.45459985    -0.10200
C1396       C  0.03084749  0.73900746  0.47866693     0.10700
C1397       C  0.01657345  0.75681329  0.48945339    -0.02000
C1398       C  0.02714038  0.78744069  0.47609842     0.10500
C1399       C  0.01257691  0.80466122  0.48715261    -0.12000
C1400       C  0.48816409  0.79201983  0.51100221    -0.12000
C1401       C  0.47672292  0.76127131  0.52378491     0.10500
C1402       C  0.49075452  0.74333213  0.51242367    -0.02000
C1403       C  0.01985265  0.70850663  0.49184891    -0.12100
C1404       C  0.49461052  0.69530841  0.51438623    -0.12100
C1405       C  0.47952709  0.71217497  0.52464344     0.10700
C1406       C  0.45349479  0.69866089  0.54692631    -0.10200
C1407       C  0.43907285  0.71611641  0.55685540    -0.04100
C1408       C  0.45137665  0.74771035  0.54730459    -0.10200
H1409       H  0.02027616  0.82823194  0.47767764     0.08000
H1410       H  0.47771423  0.80619299  0.51869458     0.08000
H1411       H  0.03073626  0.69457184  0.48482518     0.08200
H1412       H  0.48666135  0.67152618  0.52336217     0.08200
H1413       H  0.08397786  0.79139582  0.42248868     0.04600
H1414       H  0.42053070  0.70634237  0.57581233     0.04600
C1415       C  0.20220100  0.74383310  0.44949255    -0.10200
C1416       C  0.22008971  0.77475558  0.43727230    -0.04100
C1417       C  0.25090287  0.79490858  0.44790420    -0.10200
C1418       C  0.26391850  0.78475836  0.47306659     0.10700
C1419       C  0.24558706  0.75385470  0.48659220    -0.02000
C1420       C  0.21460682  0.73322483  0.47464562     0.10500
C1421       C  0.19687247  0.70264712  0.48812213    -0.12000
C1422       C  0.20914365  0.69264850  0.51342973    -0.12000
C1423       C  0.23989384  0.71258088  0.52538418     0.10500
C1424       C  0.25855389  0.74321312  0.51140690    -0.02000
C1425       C  0.29482346  0.80453251  0.48479264    -0.12100
C1426       C  0.30736163  0.79425139  0.50969679    -0.12100
C1427       C  0.28961996  0.76366941  0.52325239     0.10700
C1428       C  0.30187409  0.75291215  0.54858994    -0.10200
C1429       C  0.28326926  0.72239554  0.56165803    -0.04100
C1430       C  0.25223855  0.70284191  0.55145644    -0.10200
H1431       H  0.17312584  0.68648540  0.47961016     0.08000
H1432       H  0.19445964  0.66898998  0.52335992     0.08000
H1433       H  0.30938463  0.82828578  0.47504758     0.08200
H1434       H  0.33117764  0.81029864  0.51809621     0.08200
H1435       H  0.21108978  0.78209576  0.41655173     0.04600
H1436       H  0.29183698  0.71513300  0.58283467     0.04600
C1437       C  0.19839799  0.94974343  0.45213543    -0.10200
C1438       C  0.21607706  0.93561519  0.44211971    -0.04100
C1439       C  0.24665927  0.94638804  0.45402893    -0.10200
C1440       C  0.25957118  0.97141924  0.47798461     0.10700
C1441       C  0.24157830  0.98554890  0.48891561    -0.02000
C1442       C  0.21087988  0.97457762  0.47597486     0.10500
C1443       C  0.19364774  0.98913577  0.48660187    -0.12000
C1444       C  0.20637046  0.51430994  0.50937827    -0.12000
C1445       C  0.23689284  0.52601240  0.52200463     0.10500
C1446       C  0.25481196  0.51171503  0.51168110    -0.02000
C1447       C  0.29022205  0.98341584  0.49045227    -0.12100
C1448       C  0.30289485  0.50860693  0.51360911    -0.12100
C1449       C  0.28551858  0.52299509  0.52473362     0.10700
C1450       C  0.29799622  0.54862602  0.54820793    -0.10200
C1451       C  0.28028311  0.56298987  0.55708625    -0.04100
C1452       C  0.24970783  0.55141584  0.54517294    -0.10200
H1453       H  0.17011403  0.98112685  0.47738188     0.08000
H1454       H  0.19221375  0.52483998  0.51674390     0.08000
H1455       H  0.30456670  0.97326780  0.48247760     0.08200
H1456       H  0.32666079  0.51704277  0.52227859     0.08200
H1457       H  0.20699131  0.91780308  0.42226128     0.04600
H1458       H  0.28914744  0.58141023  0.57631786     0.04600
C1459       C  0.48874025  0.52068068  0.00405412     0.02900
C1460       C  0.02107970  0.53028197  0.00573550     0.02900
C1461       C  0.03060047  0.00731987  0.00627005     0.02900
C1462       C  0.50774572  0.97481934  0.00700298     0.02900
C1463       C  0.47545394  0.96523588  0.00567844     0.02900
C1464       C  0.46587207  0.98815979  0.00541906     0.02900
C1465       C  0.32929113  0.63493700  0.33408055     0.02900
C1466       C  0.35897618  0.66070101  0.34319177     0.02900
C1467       C  0.36287792  0.69138701  0.34665355     0.02900
C1468       C  0.33692779  0.69611539  0.34191676     0.02900
C1469       C  0.30725982  0.67029607  0.33274695     0.02900
C1470       C  0.30340414  0.63965050  0.32892179     0.02900
C1471       C  0.17674675  0.86448694  0.66507674     0.02900
C1472       C  0.19944034  0.85471381  0.66507440     0.02900
C1473       C  0.18963704  0.82209175  0.66656132     0.02900
C1474       C  0.15718453  0.79927824  0.66545399     0.02900
C1475       C  0.13457715  0.80922788  0.66530967     0.02900
C1476       C  0.14433322  0.84180193  0.66405016     0.02900
C1477       C  0.10729825  0.84845479  0.62702708     0.24200
C1478       C  0.12047774  0.85171531  0.65888482    -0.23900
C1479       C  0.10958387  0.86250754  0.68580704     0.19100
C1480       C  0.08427364  0.86781422  0.68152925     0.24200
C1481       C  0.06895717  0.86178550  0.65018754    -0.23800
C1482       C  0.08179049  0.85343344  0.62263573     0.19100
F1483       F  0.06888636  0.84872206  0.59169229    -0.13800
F1484       F  0.11845143  0.83923024  0.60036861    -0.16100
F1485       F  0.07360506  0.87683985  0.70876940    -0.16100
F1486       F  0.12231752  0.86621483  0.71670675    -0.13800
C1487       C  0.23167040  0.81179489  0.64423019     0.24200
C1488       C  0.21350394  0.81227932  0.67140787    -0.23900
C1489       C  0.22061034  0.80721933  0.70397482     0.19100
C1490       C  0.24683520  0.80359629  0.70951510     0.24200
C1491       C  0.26575070  0.80413576  0.68235376    -0.23800
C1492       C  0.25735919  0.80744504  0.64955181     0.19100
F1493       F  0.27555061  0.80913455  0.62273603    -0.13800
F1494       F  0.22564671  0.81740859  0.61271065    -0.16100
F1495       F  0.25424347  0.80051564  0.74140045    -0.16100
F1496       F  0.20324498  0.80776447  0.73057500    -0.13800
C1497       C  0.27419990  0.91688778  0.62280796     0.24200
C1498       C  0.29470372  0.93053237  0.65018319    -0.23900
C1499       C  0.28471753  0.91621481  0.68204453     0.19100
C1500       C  0.25414037  0.89064366  0.68676020     0.24200
C1501       C  0.23320750  0.87871543  0.65980798    -0.23800
C1502       C  0.24377084  0.89121342  0.62764427     0.19100
F1503       F  0.22403516  0.87928326  0.60107828    -0.13800
F1504       F  0.28304083  0.92917634  0.59155417    -0.16100
F1505       F  0.24441697  0.87871018  0.71800426    -0.16100
F1506       F  0.30359704  0.92826186  0.70927306    -0.13800
C1507       C  0.05582401  0.75399456  0.70549539     0.24200
C1508       C  0.03946224  0.73392268  0.67843469    -0.23900
C1509       C  0.05335586  0.74094163  0.64616187     0.19100
C1510       C  0.08384326  0.76644459  0.64150033     0.24200
C1511       C  0.10068214  0.78545194  0.66886333    -0.23800
C1512       C  0.08615550  0.77987309  0.70062228     0.19100
F1513       F  0.10218148  0.79833667  0.72728368    -0.13800
F1514       F  0.04284427  0.74795991  0.73674047    -0.16100
F1515       F  0.09759589  0.77158272  0.61067129    -0.16100
F1516       F  0.03850519  0.72156024  0.61960617    -0.13800
C1517       C  0.14393082  0.72257912  0.62562299     0.24200
C1518       C  0.13273410  0.70165518  0.65296356    -0.23900
C1519       C  0.12622795  0.71223154  0.68365143     0.19100
C1520       C  0.13384359  0.74389745  0.68774347     0.24200
C1521       C  0.14709813  0.76516526  0.66104969    -0.23800
C1522       C  0.15083048  0.75400553  0.62962779     0.19100
F1523       F  0.16193838  0.77387437  0.60299777    -0.13800
F1524       F  0.14931545  0.71295454  0.59534490    -0.16100
F1525       F  0.12969303  0.75415853  0.71820391    -0.16100
F1526       F  0.11489743  0.69273985  0.71059499    -0.13800
C1527       C  0.19224283  0.94604549  0.64289439     0.24200
C1528       C  0.19786019  0.96074940  0.67474680    -0.23900
C1529       C  0.19887922  0.94444061  0.70299889     0.19100
C1530       C  0.19367146  0.91351678  0.69948905     0.24200
C1531       C  0.18673475  0.89852615  0.66786230    -0.23800
C1532       C  0.18660890  0.91509912  0.63954533     0.19100
F1533       F  0.17949081  0.90072314  0.60894110    -0.13800
F1534       F  0.18969945  0.96071582  0.61533315    -0.16100
F1535       F  0.19373997  0.89753832  0.72711251    -0.16100
F1536       F  0.20420057  0.95816754  0.73389438    -0.13800
C1537       C  0.47504380  0.57986359  0.95792830     0.24200
C1538       C  0.46956298  0.59584621  0.98456716    -0.23900
C1539       C  0.96726176  0.58460175  0.01759364     0.19100
C1540       C  0.97257198  0.55948184  0.02392928     0.24200
C1541       C  0.47927430  0.54458727  0.99742835    -0.23800
C1542       C  0.47926772  0.55404304  0.96433246     0.19100
F1543       F  0.48477630  0.53907898  0.93832417    -0.13800
F1544       F  0.47732634  0.58980914  0.92582898    -0.16100
F1545       F  0.97266605  0.55068530  0.05606402    -0.16100
F1546       F  0.96221741  0.59933945  0.04415991    -0.13800
C1547       C  0.02728146  0.91092296  0.98487272     0.24200
C1548       C  0.02679521  0.89845249  0.01681428    -0.23900
C1549       C  0.52355424  0.91376887  0.04553846     0.19100
C1550       C  0.51873138  0.93960341  0.04228516     0.24200
C1551       C  0.01733991  0.95059969  0.01037610    -0.23800
C1552       C  0.02267199  0.93686619  0.98179312     0.19100
F1553       F  0.02166153  0.94748149  0.95079293    -0.13800
F1554       F  0.02962021  0.89654141  0.95638954    -0.16100
F1555       F  0.51400158  0.95303742  0.07021131    -0.16100
F1556       F  0.52379461  0.90296578  0.07668926    -0.13800
C1557       C  0.05700132  0.57682659  0.04108982     0.24200
C1558       C  0.04521146  0.56429829  0.00920429    -0.23900
C1559       C  0.05861477  0.58316839  0.98080644     0.19100
C1560       C  0.08427491  0.61391772  0.98407502     0.24200
C1561       C  0.09761834  0.62593459  0.01587879    -0.23800
C1562       C  0.08313995  0.60730086  0.04445635     0.19100
F1563       F  0.09509192  0.61793677  0.07552621    -0.13800
F1564       F  0.04422014  0.55877222  0.06883621    -0.16100
F1565       F  0.09756401  0.63076242  0.95570528    -0.16100
F1566       F  0.04824260  0.57109994  0.94969716    -0.13800
C1567       C  0.43442317  0.91267012  0.02806738     0.24200
C1568       C  0.45164636  0.93137127  0.00077233    -0.23900
C1569       C  0.44411157  0.91888601  0.96808001     0.19100
C1570       C  0.41824482  0.88864466  0.96250398     0.24200
C1571       C  0.39967460  0.87049589  0.98963900    -0.23800
C1572       C  0.40865461  0.88234612  0.02262314     0.19100
F1573       F  0.39101589  0.86574836  0.04949967    -0.13800
F1574       F  0.44145733  0.92451634  0.05979115    -0.16100
F1575       F  0.41070664  0.87756704  0.93056748    -0.16100
F1576       F  0.46072774  0.93681583  0.94142525    -0.13800
C1577       C  0.38223175  0.46354948  0.98070823     0.24200
C1578       C  0.36890495  0.96490376  0.01192806    -0.23900
C1579       C  0.38676161  0.97065459  0.04119312     0.19100
C1580       C  0.41798498  0.97712032  0.03905339     0.24200
C1581       C  0.43187449  0.97818181  0.00767986    -0.23800
C1582       C  0.41357600  0.47049094  0.97864001     0.19100
F1583       F  0.42655824  0.47115813  0.94814057    -0.13800
F1584       F  0.36585729  0.45800071  0.95180414    -0.16100
F1585       F  0.43508129  0.98344647  0.06751784    -0.16100
F1586       F  0.37428724  0.97093284  0.07174725    -0.13800
C1587       C  0.08257318  0.02095742  0.03106238     0.24200
C1588       C  0.06432915  0.51694169  0.00272245    -0.23900
C1589       C  0.07755850  0.51984330  0.97056957     0.19100
C1590       C  0.10820187  0.52497308  0.96673210     0.24200
C1591       C  0.12628424  0.52818969  0.99509570    -0.23800
C1592       C  0.11349298  0.02702927  0.02733875     0.19100
F1593       F  0.12989503  0.02903554  0.05535650    -0.13800
F1594       F  0.06988134  0.01738894  0.06229036    -0.16100
F1595       F  0.11985934  0.52588962  0.93541130    -0.16100
F1596       F  0.06017026  0.51620513  0.94291378    -0.13800
C1597       C  0.31147690  0.58108477  0.35704931     0.24200
C1598       C  0.32451786  0.60239659  0.33038721    -0.23900
C1599       C  0.32860385  0.59143823  0.29899126     0.19100
C1600       C  0.31991819  0.55954110  0.29432887     0.24200
C1601       C  0.30660170  0.53794382  0.32095835    -0.23800
C1602       C  0.30227405  0.54909741  0.35238837     0.19100
F1603       F  0.29011178  0.52937023  0.37907579    -0.13800
F1604       F  0.30703718  0.59122310  0.38747432    -0.16100
F1605       F  0.32428484  0.54977384  0.26366581    -0.16100
F1606       F  0.33994621  0.61140516  0.27248738    -0.13800
C1607       C  0.35983087  0.77970337  0.31673349     0.24200
C1608       C  0.35950047  0.79378905  0.34782445    -0.23900
C1609       C  0.35036957  0.77499727  0.37686425     0.19100
C1610       C  0.34207134  0.74296657  0.37488220     0.24200
C1611       C  0.34207933  0.72900211  0.34378262    -0.23800
C1612       C  0.35077245  0.74753102  0.31475329     0.19100
F1613       F  0.35108801  0.73450530  0.28450194    -0.13800
F1614       F  0.36778211  0.79670607  0.28793595    -0.16100
F1615       F  0.33454958  0.72569691  0.40342631    -0.16100
F1616       F  0.34973535  0.78768787  0.40722365    -0.13800
C1617       C  0.26494317  0.59543897  0.29157807     0.24200
C1618       C  0.27186619  0.61129383  0.32281155    -0.23900
C1619       C  0.25232386  0.59608824  0.35049224     0.19100
C1620       C  0.22827951  0.56443769  0.34791600     0.24200
C1621       C  0.22310873  0.54761804  0.31746222    -0.23800
C1622       C  0.24057861  0.56374797  0.28888493     0.19100
F1623       F  0.23536238  0.54829945  0.25897832    -0.13800
F1624       F  0.28325054  0.60990506  0.26433369    -0.16100
F1625       F  0.21019052  0.55002169  0.37536136    -0.16100
F1626       F  0.25820467  0.61112579  0.38071736    -0.13800
C1627       C  0.43386517  0.76705437  0.32094160     0.24200
C1628       C  0.44184928  0.78434664  0.35127822    -0.23900
C1629       C  0.42810161  0.76834892  0.38139081     0.19100
C1630       C  0.40447384  0.73623825  0.38064707     0.24200
C1631       C  0.39463788  0.71990984  0.34985009    -0.23800
C1632       C  0.41058868  0.73508977  0.32029258     0.19100
F1633       F  0.40144902  0.71974772  0.29029641    -0.13800
F1634       F  0.44834011  0.78124799  0.29172085    -0.16100
F1635       F  0.38948450  0.72179894  0.40954503    -0.16100
F1636       F  0.43613324  0.78423215  0.41115907    -0.13800
C1637       C  0.26615203  0.68257077  0.35320736     0.24200
C1638       C  0.28056919  0.67563648  0.32642382    -0.23900
C1639       C  0.26997539  0.67444488  0.29362951     0.19100
C1640       C  0.24471265  0.67948704  0.28774908     0.24200
C1641       C  0.23021697  0.68663278  0.31460773    -0.23800
C1642       C  0.24163149  0.68859175  0.34739792     0.19100
F1643       F  0.22807735  0.69470599  0.37426567    -0.13800
F1644       F  0.27517704  0.68250374  0.38520894    -0.16100
F1645       F  0.23436892  0.67716739  0.25586071    -0.16100
F1646       F  0.28408461  0.66830344  0.26733747    -0.13800
C1647       C  0.41968185  0.64570592  0.38440507     0.24200
C1648       C  0.43652245  0.64397405  0.35627304    -0.22100
C1649       C  0.42765410  0.64803497  0.32403532     0.19100
C1650       C  0.40294073  0.65413577  0.32005987     0.24200
C1651       C  0.38601848  0.65552278  0.34799758    -0.23800
C1652       C  0.39434870  0.65111247  0.38021256     0.19100
F1653       F  0.37804648  0.65224692  0.40752551    -0.13800
F1654       F  0.42773606  0.64221023  0.41584571    -0.16100
F1655       F  0.39603449  0.65951655  0.28886221    -0.16100
F1656       F  0.44405453  0.64793380  0.29631152    -0.13800
O1657       O  0.54604970  0.18464069  0.34462904    -0.87700
C1658       C  0.58486412  0.15304530  0.41210468     0.88300
Mg1659     Mg  0.51851413  0.15602165  0.30374822     1.58100
O1660       O  0.63490509  0.20856864  0.35230728    -0.87400
O1661       O  0.58539143  0.23200320  0.35414701    -0.74800
C1662       C  0.60296107  0.10046218  0.23030004     0.93400
O1663       O  0.51858085  0.11343523  0.36922151    -0.74600
O1664       O  0.57411092  0.09253308  0.23428008    -0.82100
Mg1665     Mg  0.53253146  0.16248206  0.39287929     1.58000
C1666       C  0.70107747  0.18813676  0.30967788     0.93300
O1667       O  0.54294761  0.20760067  0.42072404    -0.80300
H1668       H  0.65679180  0.25224074  0.33283931    -0.05700
C1669       C  0.60750781  0.11652198  0.32751638     0.88200
O1670       O  0.56026451  0.18241621  0.26714552    -0.74900
O1671       O  0.58034752  0.17355766  0.39955114    -0.87600
O1672       O  0.69231367  0.20072528  0.33227676    -0.80400
C1673       C  0.67461947  0.22250587  0.42936869     0.93400
C1674       C  0.56475904  0.23201689  0.43528308     0.93300
Mg1675     Mg  0.63511652  0.16826602  0.27564320     1.58000
O1676       O  0.62506010  0.12387086  0.24585505    -0.80400
O1677       O  0.64934600  0.21718144  0.29951516    -0.74600
O1678       O  0.65031866  0.22561492  0.43079010    -0.80400
O1679       O  0.98330012  0.15492984  0.38516487    -0.82100
O1680       O  0.51834139  0.10789705  0.23650989    -0.80500
C1681       C  0.64745009  0.22706836  0.32867705     0.87700
O1682       O  0.58743138  0.15782330  0.26913967    -0.87600
O1683       O  0.62087905  0.14554235  0.32387838    -0.87700
O1684       O  0.58159938  0.09837847  0.31314113    -0.74800
Mg1685     Mg  0.61532465  0.22369614  0.39176675     1.58000
O1686       O  0.67822501  0.20558339  0.40723226    -0.82100
H1687       H  0.54870141  0.22322693  0.32415791    -0.05900
O1688       O  0.53199968  0.12181786  0.31604197    -0.87400
H1689       H  0.51102854  0.07830096  0.33592243    -0.05700
H1690       H  0.59900873  0.19416366  0.23823386    -0.05900
C1691       C  0.52009004  0.10344887  0.33993972     0.87700
C1692       C  0.55922443  0.21356017  0.34047445     0.88300
C1693       C  0.58285551  0.17847743  0.25711346     0.88300
H1694       H  0.61769319  0.10647878  0.34379379    -0.05800
O1695       O  0.60707284  0.14851008  0.40204387    -0.74900
Mg1696     Mg  0.55219655  0.10783560  0.27567519     1.58000
H1697       H  0.56883179  0.13785135  0.43136183    -0.05900
C1698       C  0.96566216  0.14220720  0.35996304     0.93300
O1699       O  0.48910177  0.12563600  0.26161601    -0.82100
C1700       C  0.49353921  0.11006886  0.23856772     0.93400
O1701       O  0.59376188  0.24041504  0.43190812    -0.82100
Mg1702     Mg  0.64847646  0.17459849  0.36508692     1.58200
O1703       O  0.97405203  0.13029597  0.33620785    -0.80400
O1704       O  0.68390683  0.17501488  0.28424361    -0.82100
C1705       C  0.61172057  0.03045663  0.21360595    -0.10200
C1706       C  0.59821987  0.04888332  0.22207025    -0.04100
C1707       C  0.61107441  0.07983809  0.21034984    -0.10200
C1708       C  0.63605330  0.09165651  0.18638819     0.10700
C1709       C  0.64881003  0.07233548  0.17597681    -0.02000
C1710       C  0.63666311  0.04162325  0.18979589     0.10500
C1711       C  0.65019094  0.02311317  0.18009584    -0.12000
C1712       C  0.67537672  0.03464890  0.15738672    -0.12000
C1713       C  0.68827736  0.06531293  0.14395605     0.10500
C1714       C  0.67484672  0.08435115  0.15319417    -0.02000
C1715       C  0.64880138  0.12226361  0.17289329    -0.12100
C1716       C  0.67371865  0.13373551  0.14972002    -0.12100
C1717       C  0.68712855  0.11518051  0.13943490     0.10700
C1718       C  0.71278241  0.12672838  0.11622528    -0.10200
C1719       C  0.72642178  0.10800900  0.10846803    -0.04100
C1720       C  0.71418496  0.07733701  0.12139269    -0.10200
H1721       H  0.64114044  0.49936571  0.18988841     0.08000
H1722       H  0.68506452  0.01952683  0.15084044     0.08000
H1723       H  0.63937342  0.13748835  0.17999725     0.08200
H1724       H  0.68281014  0.15761819  0.14051311     0.08200
H1725       H  0.58038540  0.04068989  0.24179503     0.04600
H1726       H  0.74505438  0.11628084  0.08964987     0.04600
C1727       C  0.96637273  0.08903030  0.21790443    -0.10200
C1728       C  0.94844854  0.05794908  0.22968853    -0.04100
C1729       C  0.91752139  0.03819939  0.21928124    -0.10200
C1730       C  0.90467698  0.04873566  0.19435333     0.10700
C1731       C  0.92308541  0.07980989  0.18122515    -0.02000
C1732       C  0.95401068  0.10021305  0.19330358     0.10500
C1733       C  0.97167332  0.13115394  0.18058661    -0.12000
C1734       C  0.95936818  0.14167220  0.15577622    -0.12000
C1735       C  0.92875809  0.12182378  0.14352579     0.10500
C1736       C  0.91021960  0.09083500  0.15672853    -0.02000
C1737       C  0.87385549  0.02912006  0.18244773    -0.12100
C1738       C  0.86156782  0.03961762  0.15755469    -0.12100
C1739       C  0.87939220  0.07036483  0.14434715     0.10700
C1740       C  0.86741968  0.08109094  0.11869310    -0.10200
C1741       C  0.88548797  0.11203168  0.10690377    -0.04100
C1742       C  0.91626037  0.13199967  0.11806073    -0.10200
H1743       H  0.49535916  0.14720842  0.18933725     0.08000
H1744       H  0.97387458  0.16558953  0.14641020     0.08000
H1745       H  0.85917089  0.50523153  0.19185820     0.08200
H1746       H  0.83784629  0.02357363  0.14889859     0.08200
H1747       H  0.95742417  0.05026984  0.25013805     0.04600
H1748       H  0.87689828  0.11932149  0.08576732     0.04600
O1749       O  0.53787890  0.36683462  0.31325933    -0.87700
C1750       C  0.54819037  0.45469540  0.31261975     0.88300
Mg1751     Mg  0.53749821  0.34350445  0.35929773     1.58100
O1752       O  0.60994958  0.44418842  0.28030197    -0.87400
O1753       O  0.55432586  0.37567817  0.26143815    -0.74800
C1754       C  0.67058800  0.44235437  0.43170524     0.93400
O1755       O  0.51815600  0.39940151  0.37044922    -0.74600
O1756       O  0.64364158  0.41917854  0.43948648    -0.82100
Mg1757     Mg  0.50626327  0.38502698  0.31420712     1.58000
C1758       C  0.69840990  0.01385926  0.31621815     0.93300
O1759       O  0.48939131  0.37074284  0.25955502    -0.80300
H1760       H  0.62818775  0.42610264  0.24747090    -0.05700
C1761       C  0.62137214  0.47387386  0.37996120     0.88200
O1762       O  0.58745146  0.35225202  0.34733630    -0.74900
O1763       O  0.54465806  0.43020715  0.29884560    -0.87600
O1764       O  0.67716741  0.00424195  0.29413767    -0.80400
C1765       C  0.60578581  0.50511677  0.23711608     0.93400
C1766       C  0.49375260  0.38677329  0.23300478     0.93300
Mg1767     Mg  0.65754238  0.44560691  0.35080580     1.58000
O1768       O  0.67520577  0.45836816  0.40510942    -0.80400
O1769       O  0.64608260  0.43257772  0.29449727    -0.74600
O1770       O  0.58105676  0.47793023  0.23463964    -0.80400
O1771       O  0.96691920  0.33542085  0.32664369    -0.82100
O1772       O  0.58227428  0.35232510  0.43043520    -0.80500
C1773       C  0.62796424  0.43407114  0.27288350     0.87700
O1774       O  0.61866850  0.40038252  0.36601803    -0.87600
O1775       O  0.62636628  0.46444776  0.35296357    -0.87700
O1776       O  0.61073013  0.45552018  0.40500166    -0.74800
Mg1777     Mg  0.56695371  0.42756950  0.25252216     1.58000
O1778       O  0.62574994  0.01216378  0.26032584    -0.82100
H1779       H  0.53948487  0.33348529  0.28467605    -0.05900
O1780       O  0.55411804  0.38767925  0.38547989    -0.87400
H1781       H  0.53660063  0.40725912  0.41736337    -0.05700
H1782       H  0.63532142  0.37376904  0.34561568    -0.05900
C1783       C  0.53647149  0.39843464  0.39227629     0.87700
C1784       C  0.54361739  0.35748615  0.28660902     0.88300
C1785       C  0.61488851  0.37552396  0.35296490     0.88300
H1786       H  0.62611462  0.49806621  0.38231559    -0.05800
O1787       O  0.57545707  0.47777050  0.31926422    -0.74900
Mg1788     Mg  0.59712721  0.40319671  0.41297450     1.58000
H1789       H  0.52760183  0.45614758  0.32001884    -0.05900
C1790       C  0.96588843  0.31837440  0.35091266     0.93300
O1791       O  0.53632772  0.31897686  0.40674240    -0.82100
C1792       C  0.55694249  0.32550587  0.42897762     0.93400
O1793       O  0.52047850  0.41042610  0.22548851    -0.82100
Mg1794     Mg  0.62580062  0.48792975  0.30736951     1.58200
O1795       O  0.98712675  0.32973125  0.37295277    -0.80400
O1796       O  0.69694291  0.99544917  0.33926311    -0.82100
O1797       O  0.83147832  0.46220624  0.35349629    -0.87700
C1798       C  0.76066882  0.37025584  0.35269417     0.88300
Mg1799     Mg  0.85568513  0.48811806  0.30894632     1.58100
O1800       O  0.83432256  0.38825344  0.38547987    -0.87400
O1801       O  0.83923307  0.45379836  0.40507907    -0.74800
C1802       C  0.89971319  0.39470427  0.23349652     0.93400
O1803       O  0.78324794  0.42645398  0.29434540    -0.74600
O1804       O  0.89607299  0.41795412  0.22547813    -0.82100
Mg1805     Mg  0.78110422  0.43808656  0.35060545     1.58000
C1806       C  0.86441534  0.32645660  0.34881133     0.93300
O1807       O  0.77314118  0.44933879  0.40408924    -0.80300
H1808       H  0.86964775  0.40976408  0.41823077    -0.05700
C1809       C  0.82069638  0.36069997  0.28567877     0.88200
O1810       O  0.89862238  0.48285420  0.32105564    -0.74900
O1811       O  0.77976917  0.39560157  0.36621209    -0.87600
O1812       O  0.85007193  0.33387513  0.37059656    -0.80400
C1813       C  0.77078539  0.32217280  0.42633588     0.93400
C1814       C  0.76613081  0.43724283  0.43315518     0.93300
Mg1815     Mg  0.88464892  0.39320842  0.31489039     1.58000
O1816       O  0.88989477  0.38043219  0.26123615    -0.80400
O1817       O  0.88375143  0.40554691  0.37116188    -0.74600
O1818       O  0.77067580  0.34828930  0.42973302    -0.80400
O1819       O  0.78445036  0.48470874  0.33924113    -0.82100
O1820       O  0.89759979  0.48489175  0.23759278    -0.80500
C1821       C  0.86262641  0.40136939  0.39281405     0.87700
O1822       O  0.88686526  0.43646304  0.30015779    -0.87600
O1823       O  0.83452826  0.37028986  0.31265570    -0.87700
O1824       O  0.82743315  0.37931624  0.26100207    -0.74800
Mg1825     Mg  0.80391877  0.40068269  0.41338180     1.58000
O1826       O  0.78663439  0.31774750  0.40367383    -0.82100
H1827       H  0.86298528  0.49704160  0.38289426    -0.05900
O1828       O  0.83290080  0.44485696  0.28033772    -0.87400
H1829       H  0.79792012  0.42325640  0.24723931    -0.05700
H1830       H  0.92841508  0.46513989  0.32179947    -0.05900
C1831       C  0.80465389  0.43141341  0.27277328     0.87700
C1832       C  0.84524387  0.47222617  0.38041652     0.88300
C1833       C  0.90571830  0.46157493  0.31426657     0.88300
H1834       H  0.80246264  0.33608570  0.28306531    -0.05800
O1835       O  0.76775810  0.34900296  0.34584419    -0.74900
Mg1836     Mg  0.86356719  0.43245756  0.25309521     1.58000
H1837       H  0.73778392  0.36649739  0.34565080    -0.05900
C1838       C  0.80166602  0.00539894  0.31793260     0.93300
O1839       O  0.88111968  0.01527570  0.26309382    -0.82100
C1840       C  0.89737255  0.51095607  0.24077359     0.93400
O1841       O  0.77199723  0.41563949  0.44212584    -0.82100
Mg1842     Mg  0.81114116  0.34453434  0.35752567     1.58200
O1843       O  0.81711049  0.99930244  0.29619625    -0.80400
O1844       O  0.88051204  0.34588601  0.32598529    -0.82100
C1845       C  0.96568391  0.37975903  0.21322778    -0.10200
C1846       C  0.94887794  0.39459924  0.22404936    -0.04100
C1847       C  0.91842780  0.38484961  0.21259296    -0.10200
C1848       C  0.90446182  0.35989766  0.18883147     0.10700
C1849       C  0.92158623  0.34521558  0.17680036    -0.02000
C1850       C  0.95239462  0.35531476  0.18887308     0.10500
C1851       C  0.96882456  0.34038695  0.17671820    -0.12000
C1852       C  0.95538221  0.31610787  0.15282493    -0.12000
C1853       C  0.92471035  0.30535189  0.14092658     0.10500
C1854       C  0.90738468  0.31953220  0.15364004    -0.02000
C1855       C  0.87353766  0.34864261  0.17756300    -0.12100
C1856       C  0.85968284  0.32351374  0.15466138    -0.12100
C1857       C  0.87619416  0.30863982  0.14250745     0.10700
C1858       C  0.86233768  0.28309202  0.11942447    -0.10200
C1859       C  0.87937237  0.26871901  0.10789322    -0.04100
C1860       C  0.91075494  0.28055247  0.11684580    -0.10200
H1861       H  0.99235911  0.34762342  0.18539912     0.08000
H1862       H  0.96898112  0.30530578  0.14432112     0.08000
H1863       H  0.85986408  0.35928945  0.18634184     0.08200
H1864       H  0.83574196  0.31550478  0.14681611     0.08200
H1865       H  0.95857916  0.41223772  0.24403668     0.04600
H1866       H  0.86934526  0.25058354  0.08841170     0.04600
O1867       O  0.79590132  0.00096968  0.98177877    -0.87700
C1868       C  0.70567738  0.42680589  0.97630337     0.88300
Mg1869     Mg  0.82098433  0.02116162  0.02765517     1.58100
O1870       O  0.71790412  0.00114132  0.94833838    -0.87400
O1871       O  0.78554093  0.01129329  0.93166631    -0.74800
C1872       C  0.72325605  0.05633382  0.10345691     0.93400
O1873       O  0.75977663  0.44542946  0.03504370    -0.74600
O1874       O  0.74785188  0.05519546  0.11089611    -0.82100
Mg1875     Mg  0.77366843  0.45080801  0.97870676     1.58000
C1876       C  0.65602738  0.02753378  0.99208926     0.93300
O1877       O  0.78971898  0.45491478  0.92463836    -0.80300
H1878       H  0.73946755  0.03948875  0.91908917    -0.05700
C1879       C  0.69176886  0.47823002  0.04783098     0.88200
O1880       O  0.81435881  0.06433616  0.02066485    -0.74900
O1881       O  0.73056092  0.44909789  0.96562949    -0.87600
O1882       O  0.65835857  0.50948016  0.97019272    -0.80400
C1883       C  0.65502537  0.43555406  0.90563893     0.93400
C1884       C  0.77304119  0.44022329  0.89954898     0.93300
Mg1885     Mg  0.72269128  0.04444202  0.02439925     1.58000
O1886       O  0.70659326  0.04093806  0.07862743    -0.80400
O1887       O  0.73600231  0.04961429  0.96805754    -0.74600
O1888       O  0.68211238  0.43788099  0.90244668    -0.80400
O1889       O  0.81934340  0.45257272  0.98955553    -0.82100
O1890       O  0.81428498  0.05789578  0.09990120    -0.80500
C1891       C  0.73114041  0.03022920  0.94396229     0.87700
O1892       O  0.76593956  0.04629857  0.03729320    -0.87600
O1893       O  0.70037477  0.49405126  0.02180928    -0.87700
O1894       O  0.71038216  0.48471022  0.07247284    -0.74800
Mg1895     Mg  0.73340710  0.47340357  0.92009205     1.58000
O1896       O  0.64879435  0.44994115  0.92870990    -0.82100
H1897       H  0.82806290  0.03728128  0.95441491    -0.05900
O1898       O  0.77743612  0.49376570  0.05509869    -0.87400
H1899       H  0.75514594  0.45513580  0.08387745    -0.05700
H1900       H  0.79316378  0.09117096  0.02205947    -0.05900
C1901       C  0.76399086  0.46461228  0.05920435     0.87700
C1902       C  0.80427242  0.01735666  0.95612722     0.88300
C1903       C  0.79108085  0.06832312  0.02668150     0.88300
H1904       H  0.66787193  0.45854081  0.04975444    -0.05800
O1905       O  0.68230505  0.43042250  0.98296847    -0.74900
Mg1906     Mg  0.76270872  0.02249692  0.08324783     1.58000
H1907       H  0.70398508  0.40408267  0.98061286    -0.05900
C1908       C  0.83924386  0.46611988  0.01269593     0.93300
O1909       O  0.84647653  0.04326396  0.07553917    -0.82100
C1910       C  0.84088891  0.05903967  0.09748387     0.93400
O1911       O  0.74874028  0.44183007  0.89212284    -0.82100
Mg1912     Mg  0.67471879  0.47294759  0.97634071     1.58200
O1913       O  0.83578087  0.98344247  0.03461032    -0.80400
O1914       O  0.67708182  0.04212670  0.01389056    -0.82100
O1915       O  0.78712903  0.30597182  0.99445820    -0.87700
C1916       C  0.75125627  0.24035660  0.92105491     0.88300
Mg1917     Mg  0.81216394  0.30142348  0.03576978     1.58100
O1918       O  0.69887237  0.24309600  0.98107136    -0.87400
O1919       O  0.74999018  0.31665626  0.98446852    -0.74800
C1920       C  0.72334091  0.15608310  0.09639097     0.93400
O1921       O  0.81348357  0.26251752  0.96655493    -0.74600
O1922       O  0.75267297  0.17660749  0.09428257    -0.82100
Mg1923     Mg  0.80291771  0.30052923  0.94565452     1.58000
C1924       C  0.62914849  0.15484876  0.01819812     0.93300
O1925       O  0.79579992  0.33860836  0.91917241    -0.80300
H1926       H  0.67902348  0.26554638  0.00432244    -0.05700
C1927       C  0.72329018  0.17512733  0.00099715     0.88200
O1928       O  0.76934911  0.28483391  0.07072748    -0.74900
O1929       O  0.75530234  0.26512221  0.93468362    -0.87600
O1930       O  0.63930557  0.17399185  0.99374468    -0.80400
C1931       C  0.66206022  0.22001725  0.90187059     0.93400
C1932       C  0.77458338  0.34148632  0.90395432     0.93300
Mg1933     Mg  0.69571727  0.19762485  0.05489909     1.58000
O1934       O  0.70254526  0.15944654  0.08099492    -0.80400
O1935       O  0.68477254  0.23531279  0.03417608    -0.74600
O1936       O  0.68538441  0.24834502  0.90311579    -0.80400
O1937       O  0.85242388  0.33991714  0.95861566    -0.82100
O1938       O  0.81137526  0.24874609  0.09789951    -0.80500
C1939       C  0.68711348  0.24859673  0.00614442     0.87700
O1940       O  0.74307915  0.23291283  0.06558029    -0.87600
O1941       O  0.71115436  0.19172303  0.00599854    -0.87700
O1942       O  0.74818925  0.18089893  0.01603338    -0.74800
Mg1943     Mg  0.72061732  0.28015126  0.94400891     1.58000
O1944       O  0.65870148  0.19868123  0.92210731    -0.82100
H1945       H  0.78543529  0.34199807  0.01730271    -0.05900
O1946       O  0.79865565  0.25409442  0.01947153    -0.87400
H1947       H  0.81854341  0.23168933  0.99618226    -0.05700
H1948       H  0.73046687  0.25610281  0.09842263    -0.05900
C1949       C  0.81060345  0.24876337  0.99443320     0.87700
C1950       C  0.77497535  0.32255445  0.99942787     0.88300
C1951       C  0.74713803  0.25762389  0.07942179     0.88300
H1952       H  0.71289156  0.15578532  0.98300041    -0.05800
O1953       O  0.72902544  0.21321653  0.92986503    -0.74900
Mg1954     Mg  0.77721169  0.21723442  0.05661268     1.58000
H1955       H  0.76792048  0.24176867  0.90210277    -0.05900
C1956       C  0.86874876  0.34176437  0.98394699     0.93300
O1957       O  0.83919268  0.29805754  0.07825998    -0.82100
C1958       C  0.83520075  0.27670652  0.09879281     0.93400
O1959       O  0.74531936  0.32072761  0.90637356    -0.82100
Mg1960     Mg  0.68594155  0.19573514  0.96469523     1.58200
O1961       O  0.85790532  0.32040111  0.00614177    -0.80400
O1962       O  0.64648101  0.15859084  0.04317471    -0.82100
O1963       O  0.51549075  0.20810105  0.99162974    -0.87700
C1964       C  0.98852795  0.24629428  0.91960014     0.88300
Mg1965     Mg  0.48474522  0.18177539  0.03230289     1.58100
O1966       O  0.54219319  0.29714261  0.98062403    -0.87400
O1967       O  0.56361580  0.24559845  0.98245330    -0.74800
C1968       C  0.92945825  0.27036531  0.09624902     0.93400
O1969       O  0.94666198  0.18192744  0.96337671    -0.74600
O1970       O  0.92011828  0.24088307  0.09287020    -0.82100
Mg1971     Mg  0.99574438  0.19347865  0.94253731     1.58000
C1972       C  0.52426910  0.36694965  0.01935628     0.93300
O1973       O  0.54130927  0.20168918  0.91605525    -0.80300
H1974       H  0.58407555  0.31695575  0.00329647    -0.05700
C1975       C  0.95024321  0.27311763  0.00051834     0.88200
O1976       O  0.51027842  0.22395304  0.06847867    -0.74900
O1977       O  0.00848782  0.24169288  0.93305158    -0.87600
O1978       O  0.53441815  0.35711670  0.99526336    -0.80400
C1979       C  0.55915259  0.33605314  0.90263766     0.93400
C1980       C  0.56586613  0.22335215  0.90133543     0.93300
Mg1981     Mg  0.99900343  0.29931721  0.05461060     1.58000
O1982       O  0.95401464  0.29173391  0.08134324    -0.80400
O1983       O  0.54786749  0.31081604  0.03379052    -0.74600
O1984       O  0.56329470  0.31221295  0.90304629    -0.80400
O1985       O  0.98580592  0.14358081  0.95405943    -0.82100
O1986       O  0.93224075  0.18225905  0.09472313    -0.80500
C1987       C  0.55911133  0.30875762  0.00551271     0.87700
O1988       O  0.98596959  0.25118818  0.06359808    -0.87600
O1989       O  0.97871766  0.28507969  0.00559021    -0.87700
O1990       O  0.93056440  0.24757506  0.01475197    -0.74800
Mg1991     Mg  0.55805826  0.27615451  0.94296985     1.58000
O1992       O  0.54101386  0.33940990  0.92310321    -0.82100
H1993       H  0.55215901  0.20910165  0.01429353    -0.05900
O1994       O  0.95201121  0.19604132  0.01649787    -0.87400
H1995       H  0.91029039  0.17615985  0.99343439    -0.05700
H1996       H  0.52016564  0.26269275  0.09702245    -0.05900
C1997       C  0.93526218  0.18432661  0.99147175     0.87700
C1998       C  0.54394699  0.22011677  0.99678614     0.88300
C1999       C  0.50562628  0.24644299  0.07754573     0.88300
H2000       H  0.94203119  0.28419420  0.98308712    -0.05800
O2001       O  0.98390570  0.26874711  0.92891412    -0.74900
Mg2002     Mg  0.93635509  0.21720246  0.05425864     1.58000
H2003       H  0.97372207  0.22996240  0.90031926    -0.05900
C2004       C  0.97081308  0.12651817  0.97907996     0.93300
O2005       O  0.95322755  0.15386205  0.07464728    -0.82100
C2006       C  0.93617688  0.15833590  0.09569777     0.93400
O2007       O  0.57465561  0.25273400  0.90451521    -0.82100
Mg2008     Mg  0.00924867  0.31120928  0.96486687     1.58200
O2009       O  0.95881537  0.13654242  0.00101713    -0.80400
O2010       O  0.50978978  0.34927158  0.04413999    -0.82100
O2011       O  0.66723099  0.12885696  0.68649526    -0.87700
C2012       C  0.59513684  0.03669430  0.68752469     0.88300
Mg2013     Mg  0.69075041  0.15505023  0.64216642     1.58100
O2014       O  0.66864475  0.05180318  0.71858408    -0.87400
O2015       O  0.67562710  0.11851663  0.73727791    -0.74800
C2016       C  0.72960078  0.05996170  0.56507909     0.93400
O2017       O  0.61620081  0.09261965  0.62892108    -0.74600
O2018       O  0.72712274  0.08398870  0.55796831    -0.82100
Mg2019     Mg  0.61696611  0.10480803  0.68513076     1.58000
C2020       C  0.69840122  0.49109494  0.67789820     0.93300
O2021       O  0.61376940  0.11834462  0.73887614    -0.80300
H2022       H  0.70522566  0.07336469  0.74981603    -0.05700
C2023       C  0.65073843  0.02578442  0.61871954     0.88200
O2024       O  0.73290046  0.14806594  0.65222614    -0.74900
O2025       O  0.61584997  0.06203615  0.69949883    -0.87600
O2026       O  0.68133410  0.49451105  0.69998425    -0.80400
C2027       C  0.60364308  0.48702708  0.76006463     0.93400
C2028       C  0.60318412  0.10322620  0.76601980     0.93300
Mg2029     Mg  0.71565106  0.05766754  0.64518806     1.58000
O2030       O  0.71660896  0.04344323  0.59091057    -0.80400
O2031       O  0.71759288  0.07005007  0.70168111    -0.74600
O2032       O  0.60451101  0.01366626  0.76240840    -0.80400
O2033       O  0.61844940  0.15042797  0.67313114    -0.82100
O2034       O  0.72982924  0.14968947  0.57016807    -0.80500
C2035       C  0.69724934  0.06516115  0.72456898     0.87700
O2036       O  0.71756117  0.10081850  0.63201128    -0.87600
O2037       O  0.66550915  0.03427369  0.64532441    -0.87700
O2038       O  0.65751365  0.04498215  0.59447554    -0.74800
Mg2039     Mg  0.63920157  0.06559010  0.74614543     1.58000
O2040       O  0.61937268  0.48155996  0.73799395    -0.82100
H2041       H  0.70043676  0.16209135  0.71594370    -0.05900
O2042       O  0.66549473  0.11195819  0.61293582    -0.87400
H2043       H  0.62955396  0.09037087  0.58097337    -0.05700
H2044       H  0.76064724  0.12797046  0.65109848    -0.05900
C2045       C  0.63701180  0.09834681  0.60638828     0.87700
C2046       C  0.68180799  0.13765614  0.71317199     0.88300
C2047       C  0.73812689  0.12564981  0.64497891     0.88300
H2048       H  0.63165911  0.00155454  0.61599759    -0.05800
O2049       O  0.60037326  0.01410459  0.68122783    -0.74900
Mg2050     Mg  0.69469850  0.09801172  0.58555823     1.58000
H2051       H  0.57238913  0.03394634  0.68167953    -0.05900
C2052       C  0.63425886  0.17196923  0.65196660     0.93300
O2053       O  0.71620535  0.18213448  0.59609847    -0.82100
C2054       C  0.73155362  0.17660629  0.57366639     0.93400
O2055       O  0.60708323  0.08014905  0.77383616    -0.82100
Mg2056     Mg  0.64330091  0.00813642  0.69059429     1.58200
O2057       O  0.65418413  0.17032133  0.63245479    -0.80400
O2058       O  0.71305242  0.51180150  0.65572197    -0.82100
C2059       C  0.58556069  0.21382810  0.88154829    -0.10200
C2060       C  0.61677234  0.22621534  0.89164950    -0.04100
C2061       C  0.63480879  0.21272224  0.88077679    -0.10200
C2062       C  0.62198220  0.18726478  0.85745776     0.10700
C2063       C  0.59110331  0.17599195  0.84498868    -0.02000
C2064       C  0.57284757  0.18940026  0.85693784     0.10500
C2065       C  0.54251261  0.17820347  0.84382967    -0.12000
C2066       C  0.53033233  0.15430155  0.81938109    -0.12000
C2067       C  0.54777019  0.14024278  0.80764858     0.10500
C2068       C  0.57814358  0.15066881  0.82124710    -0.02000
C2069       C  0.63922602  0.17283948  0.84633877    -0.12100
C2070       C  0.62648862  0.14791967  0.82313209    -0.12100
C2071       C  0.59603557  0.13651506  0.81035531     0.10700
C2072       C  0.58328077  0.11179001  0.78630956    -0.10200
C2073       C  0.55308479  0.10127636  0.77368097    -0.04100
C2074       C  0.53565118  0.11582007  0.78292772    -0.10200
H2075       H  0.52816538  0.18830331  0.85191852     0.08000
H2076       H  0.50687457  0.14657544  0.81015863     0.08000
H2077       H  0.66288240  0.18100150  0.85526118     0.08200
H2078       H  0.64066568  0.13754623  0.81528805     0.08200
H2079       H  0.62589719  0.24418455  0.91134999     0.04600
H2080       H  0.54432455  0.08352429  0.75375684     0.04600
C2081       C  0.62892773  0.41424017  0.88340433    -0.10200
C2082       C  0.61038563  0.38279131  0.89373866    -0.04100
C2083       C  0.57971083  0.36351648  0.88177748    -0.10200
C2084       C  0.56763246  0.37535596  0.85756994     0.10700
C2085       C  0.58689691  0.40660892  0.84528538    -0.02000
C2086       C  0.61778536  0.42606738  0.85797649     0.10500
C2087       C  0.63650429  0.45691537  0.84524392    -0.12000
C2088       C  0.62525439  0.46820161  0.82000486    -0.12000
C2089       C  0.59438860  0.44956995  0.80780936     0.10500
C2090       C  0.57476475  0.41884254  0.82126543    -0.02000
C2091       C  0.53664329  0.35687287  0.84576583    -0.12100
C2092       C  0.52469411  0.36893426  0.82230394    -0.12100
C2093       C  0.54337695  0.39983327  0.80980707     0.10700
C2094       C  0.53159188  0.41205176  0.78569811    -0.10200
C2095       C  0.55109554  0.44253778  0.77287280    -0.04100
C2096       C  0.58261255  0.46070385  0.78233306    -0.10200
H2097       H  0.66025881  0.47225314  0.85423620     0.08000
H2098       H  0.64066927  0.49191632  0.81056334     0.08000
H2099       H  0.52144267  0.33285734  0.85453663     0.08200
H2100       H  0.00060122  0.35391439  0.81410704     0.08200
H2101       H  0.61848567  0.37446370  0.91440587     0.04600
H2102       H  0.54273087  0.45067800  0.75227488     0.04600
O2103       O  0.97382188  0.12155698  0.67228918    -0.87700
C2104       C  0.90716349  0.08486302  0.74419969     0.88300
Mg2105     Mg  0.97001206  0.14724847  0.63114364     1.58100
O2106       O  0.91080864  0.03261304  0.68441119    -0.87400
O2107       O  0.98369328  0.08359065  0.68188263    -0.74800
C2108       C  0.82690651  0.05823281  0.56786044     0.93400
O2109       O  0.93082180  0.14864711  0.69981765    -0.74600
O2110       O  0.84737305  0.08768149  0.57073957    -0.82100
Mg2111     Mg  0.96776581  0.13702449  0.72116673     1.58000
C2112       C  0.82366972  0.46209657  0.64701800     0.93300
O2113       O  0.50483132  0.12901429  0.74814402    -0.80300
H2114       H  0.93323616  0.01236475  0.66199473    -0.05700
C2115       C  0.84355371  0.05686413  0.66374064     0.88200
O2116       O  0.95366235  0.10439146  0.59567349    -0.74900
O2117       O  0.93199902  0.08907464  0.73103120    -0.87600
O2118       O  0.84334972  0.47232439  0.67083817    -0.80400
C2119       C  0.88776874  0.99557420  0.76372207     0.93400
C2120       C  0.00701184  0.10714525  0.76312873     0.93300
Mg2121     Mg  0.86661962  0.02938207  0.61019311     1.58000
O2122       O  0.82952478  0.03678858  0.58312544    -0.80400
O2123       O  0.90360094  0.01807441  0.63144958    -0.74600
O2124       O  0.91547580  0.01958586  0.76282912    -0.80400
O2125       O  0.50754864  0.18672421  0.70926837    -0.82100
O2126       O  0.91852697  0.14750565  0.56875816    -0.80500
C2127       C  0.91650187  0.02058424  0.65967959     0.87700
O2128       O  0.90209171  0.07749152  0.60026763    -0.87600
O2129       O  0.85990884  0.04447256  0.65896190    -0.87700
O2130       O  0.84986045  0.08227995  0.64904034    -0.74800
Mg2131     Mg  0.94693714  0.05413406  0.72190593     1.58000
O2132       O  0.86664980  0.99140812  0.74298121    -0.82100
H2133       H  0.00952475  0.11960204  0.64960161    -0.05900
O2134       O  0.92282928  0.13355951  0.64698407    -0.87400
H2135       H  0.90088849  0.15424828  0.66957798    -0.05700
H2136       H  0.92566070  0.06534237  0.56756473    -0.05900
C2137       C  0.91750590  0.14586487  0.67174906     0.87700
C2138       C  0.99004629  0.10905901  0.66727764     0.88300
C2139       C  0.92682862  0.08188847  0.58668139     0.88300
H2140       H  0.82397485  0.04626165  0.68128745    -0.05800
O2141       O  0.88037584  0.06226569  0.73521697    -0.74900
Mg2142     Mg  0.88671844  0.11208387  0.60924400     1.58000
H2143       H  0.90821337  0.10163191  0.76297007    -0.05900
C2144       C  0.51021284  0.20340080  0.68386411     0.93300
O2145       O  0.96731073  0.17508290  0.58890401    -0.82100
C2146       C  0.94638079  0.17139647  0.56816960     0.93400
O2147       O  0.98619014  0.07790105  0.76006395    -0.82100
Mg2148     Mg  0.86368571  0.01894295  0.70032544     1.58200
O2149       O  0.48929184  0.19312638  0.66134060    -0.80400
O2150       O  0.82720487  0.47949730  0.62196004    -0.82100
O2151       O  0.87766203  0.35084238  0.67587723    -0.87700
C2152       C  0.91462175  0.32115398  0.74630562     0.88300
Mg2153     Mg  0.85217438  0.32130341  0.63431677     1.58100
O2154       O  0.96684105  0.37656955  0.68721649    -0.87400
O2155       O  0.91582853  0.39876227  0.68565173    -0.74800
C2156       C  0.94130638  0.26692214  0.56757117     0.93400
O2157       O  0.85109011  0.28058671  0.70164944    -0.74600
O2158       O  0.91201897  0.25783885  0.57068187    -0.82100
Mg2159     Mg  0.86255832  0.32944912  0.72430165     1.58000
C2160       C  0.53723611  0.35889861  0.64800625     0.93300
O2161       O  0.87064492  0.37469951  0.75199664    -0.80300
H2162       H  0.98825363  0.41975068  0.66662730    -0.05700
C2163       C  0.94196935  0.28418936  0.66434121     0.88200
O2164       O  0.89502091  0.34782724  0.59926804    -0.74900
O2165       O  0.91043282  0.34182679  0.73364833    -0.87600
O2166       O  0.52685865  0.36745477  0.67306508    -0.80400
C2167       C  0.00398720  0.39142879  0.76531263     0.93400
C2168       C  0.89206678  0.39933943  0.76686205     0.93300
Mg2169     Mg  0.97015988  0.33551109  0.61201394     1.58000
O2170       O  0.96246430  0.29107661  0.58324836    -0.80400
O2171       O  0.98220421  0.38424759  0.63465788    -0.74600
O2172       O  0.98043082  0.39582972  0.76526947    -0.80400
O2173       O  0.81285003  0.31966100  0.71321878    -0.82100
O2174       O  0.85338671  0.27100701  0.56916894    -0.80500
C2175       C  0.97956121  0.39459486  0.66327462     0.87700
O2176       O  0.92224683  0.32335461  0.60308023    -0.87600
O2177       O  0.95490008  0.31311363  0.66017567    -0.87700
O2178       O  0.91655073  0.26541731  0.64949537    -0.74800
Mg2179     Mg  0.94526671  0.39187232  0.72512339     1.58000
O2180       O  0.00717566  0.37328458  0.74455699    -0.82100
H2181       H  0.87983798  0.38866172  0.65400768    -0.05900
O2182       O  0.86583960  0.28761495  0.64868887    -0.87400
H2183       H  0.84553539  0.24484709  0.67024944    -0.05700
H2184       H  0.93438142  0.35938650  0.57157878    -0.05900
C2185       C  0.85377771  0.26996090  0.67312185     0.87700
C2186       C  0.89028577  0.37965748  0.67127020     0.88300
C2187       C  0.91779272  0.34378875  0.59021911     0.88300
H2188       H  0.95205615  0.27478122  0.68157542    -0.05800
O2189       O  0.93691998  0.31656750  0.73680369    -0.74900
Mg2190     Mg  0.88757799  0.27317305  0.61001936     1.58000
H2191       H  0.89804280  0.30567313  0.76502588    -0.05900
C2192       C  0.79628363  0.30553289  0.68764210     0.93300
O2193       O  0.82464163  0.29072520  0.59130246    -0.82100
C2194       C  0.82908420  0.27422288  0.56939405     0.93400
O2195       O  0.92129295  0.40819222  0.76373825    -0.82100
Mg2196     Mg  0.97999503  0.34242966  0.70201664     1.58200
O2197       O  0.80665071  0.29465797  0.66477831    -0.80400
O2198       O  0.51993318  0.34557880  0.62262429    -0.82100
C2199       C  0.78189714  0.41967058  0.88081797    -0.10200
C2200       C  0.77065716  0.38917589  0.89364141    -0.04100
C2201       C  0.78427965  0.37080743  0.88442460    -0.10200
C2202       C  0.80884828  0.38261345  0.85992022     0.10700
C2203       C  0.82008433  0.41338478  0.84636385    -0.02000
C2204       C  0.80670706  0.43204859  0.85709771     0.10500
C2205       C  0.81870607  0.46280908  0.84423480    -0.12000
C2206       C  0.84317517  0.47493146  0.82077752    -0.12000
C2207       C  0.85663087  0.45680671  0.80958000     0.10500
C2208       C  0.84518855  0.42584709  0.82252774    -0.02000
C2209       C  0.82222861  0.36446824  0.84826504    -0.12100
C2210       C  0.84621411  0.37633000  0.82399367    -0.12100
C2211       C  0.85805144  0.40696338  0.81078603     0.10700
C2212       C  0.88247525  0.41936408  0.78621048    -0.10200
C2213       C  0.89454889  0.45051933  0.77520857    -0.04100
C2214       C  0.88119207  0.46884350  0.78555164    -0.10200
H2215       H  0.80901984  0.47765243  0.85200587     0.08000
H2216       H  0.85167976  0.49876483  0.81161583     0.08000
H2217       H  0.81392024  0.34069727  0.85743163     0.08200
H2218       H  0.85575417  0.36142789  0.81599801     0.08200
H2219       H  0.75281922  0.38073747  0.91334451     0.04600
H2220       H  0.91215835  0.45929951  0.75525761     0.04600
C2221       C  0.55176888  0.29981136  0.45175461    -0.10200
C2222       C  0.56648986  0.28259275  0.44257723    -0.04100
C2223       C  0.55555782  0.25201991  0.45463102    -0.10200
C2224       C  0.53086156  0.23904063  0.47869244     0.10700
C2225       C  0.51658812  0.25684589  0.48948300    -0.02000
C2226       C  0.52715733  0.28747558  0.47613352     0.10500
C2227       C  0.51259184  0.30469399  0.48718833    -0.12000
C2228       C  0.98817674  0.29204931  0.51103616    -0.12000
C2229       C  0.97673530  0.26129950  0.52381615     0.10500
C2230       C  0.99076798  0.24336193  0.51245185    -0.02000
C2231       C  0.51986308  0.20853626  0.49186594    -0.12100
C2232       C  0.99462012  0.19533529  0.51440129    -0.12100
C2233       C  0.97953990  0.21220289  0.52466581     0.10700
C2234       C  0.95351053  0.19868760  0.54695104    -0.10200
C2235       C  0.93909121  0.21614333  0.55688999    -0.04100
C2236       C  0.95138815  0.24773563  0.54733580    -0.10200
H2237       H  0.52029219  0.32826592  0.47771626     0.08000
H2238       H  0.97772642  0.30622162  0.51873008     0.08000
H2239       H  0.53074585  0.19460139  0.48483948     0.08200
H2240       H  0.98666943  0.17155105  0.52337177     0.08200
H2241       H  0.58400649  0.29144149  0.42253425     0.04600
H2242       H  0.92055168  0.20636776  0.57584964     0.04600
C2243       C  0.70222376  0.24391459  0.44953788    -0.10200
C2244       C  0.72012018  0.27483565  0.43731715    -0.04100
C2245       C  0.75093127  0.29498471  0.44795788    -0.10200
C2246       C  0.76393730  0.28483133  0.47312641     0.10700
C2247       C  0.74559741  0.25392931  0.48665257    -0.02000
C2248       C  0.71461660  0.23330626  0.47470412     0.10500
C2249       C  0.69687087  0.20273284  0.48818725    -0.12000
C2250       C  0.70913843  0.19272556  0.51349017    -0.12000
C2251       C  0.73989581  0.21264476  0.52543341     0.10500
C2252       C  0.75855977  0.24327898  0.51146246    -0.02000
C2253       C  0.79484272  0.30459901  0.48485404    -0.12100
C2254       C  0.80737605  0.29430980  0.50975462    -0.12100
C2255       C  0.78962896  0.26372564  0.52330356     0.10700
C2256       C  0.80188317  0.25295584  0.54862734    -0.10200
C2257       C  0.78328008  0.22243300  0.56168038    -0.04100
C2258       C  0.75224655  0.20288788  0.55148360    -0.10200
H2259       H  0.67312085  0.18657914  0.47967887     0.08000
H2260       H  0.69444795  0.16906818  0.52342025     0.08000
H2261       H  0.80940931  0.32835186  0.47511000     0.08200
H2262       H  0.83119419  0.31035046  0.51815256     0.08200
H2263       H  0.71112972  0.28217592  0.41658785     0.04600
H2264       H  0.79185131  0.21515884  0.58284444     0.04600
C2265       C  0.69844076  0.44980639  0.45209601    -0.10200
C2266       C  0.71611457  0.43566882  0.44209921    -0.04100
C2267       C  0.74669987  0.44645156  0.45400196    -0.10200
C2268       C  0.75961491  0.47149005  0.47794832     0.10700
C2269       C  0.74162290  0.48562327  0.48886899    -0.02000
C2270       C  0.71092996  0.47465863  0.47591429     0.10500
C2271       C  0.69370702  0.48923419  0.48651403    -0.12000
C2272       C  0.70632035  0.01422212  0.50945380    -0.12000
C2273       C  0.73686132  0.02595365  0.52203977     0.10500
C2274       C  0.75477692  0.01165258  0.51171364    -0.02000
C2275       C  0.79026339  0.48348463  0.49042285    -0.12100
C2276       C  0.80286375  0.00855066  0.51362270    -0.12100
C2277       C  0.78549524  0.02294940  0.52474020     0.10700
C2278       C  0.79799480  0.04861051  0.54817801    -0.10200
C2279       C  0.78029284  0.06299099  0.55704050    -0.04100
C2280       C  0.74970293  0.05139691  0.54516177    -0.10200
H2281       H  0.67018322  0.48124003  0.47727241     0.08000
H2282       H  0.69216001  0.02474496  0.51683126     0.08000
H2283       H  0.80460966  0.47333805  0.48244946     0.08200
H2284       H  0.82663528  0.01699356  0.52227754     0.08200
H2285       H  0.70702282  0.41784141  0.42225578     0.04600
H2286       H  0.78917784  0.08144015  0.57624120     0.04600
C2287       C  0.98877307  0.02069622  0.00408266     0.02900
C2288       C  0.52111419  0.03030431  0.00574603     0.02900
C2289       C  0.53055808  0.50729080  0.00627260     0.02900
C2290       C  0.00769914  0.47479236  0.00699884     0.02900
C2291       C  0.97541158  0.46521632  0.00565602     0.02900
C2292       C  0.96583661  0.48814452  0.00538624     0.02900
C2293       C  0.82928688  0.13495027  0.33420238     0.02900
C2294       C  0.85897203  0.16071093  0.34331505     0.02900
C2295       C  0.86287642  0.19139853  0.34677070     0.02900
C2296       C  0.83693138  0.19613328  0.34202050     0.02900
C2297       C  0.80726253  0.17031412  0.33285281     0.02900
C2298       C  0.80340253  0.13966603  0.32904207     0.02900
C2299       C  0.67671619  0.36444249  0.66512861     0.02900
C2300       C  0.69941588  0.35467707  0.66513178     0.02900
C2301       C  0.68961764  0.32205536  0.66660439     0.02900
C2302       C  0.65716786  0.29923627  0.66546474     0.02900
C2303       C  0.63455450  0.30917710  0.66531376     0.02900
C2304       C  0.64430447  0.34175092  0.66407911     0.02900
C2305       C  0.60724871  0.34837175  0.62706024     0.24200
C2306       C  0.62044552  0.35165862  0.65891251    -0.23900
C2307       C  0.60956579  0.36247172  0.68582918     0.19100
C2308       C  0.58426370  0.36779023  0.68154908     0.24200
C2309       C  0.56893752  0.36174823  0.65021226    -0.23800
C2310       C  0.58174651  0.35335817  0.62266772     0.19100
F2311       F  0.56882319  0.34861606  0.59173124    -0.13800
F2312       F  0.61837898  0.33911338  0.60040924    -0.16100
F2313       F  0.57361324  0.37684271  0.70878347    -0.16100
F2314       F  0.62230373  0.36618701  0.71672759    -0.13800
C2315       C  0.73162660  0.31172065  0.64428448     0.24200
C2316       C  0.71348754  0.31225058  0.67146527    -0.23900
C2317       C  0.72063363  0.30725783  0.70404143     0.19100
C2318       C  0.74686999  0.30365442  0.70958287     0.24200
C2319       C  0.76575699  0.30414501  0.68241495    -0.23800
C2320       C  0.75732590  0.30738881  0.64960801     0.19100
F2321       F  0.77548927  0.30903467  0.62278284    -0.13800
F2322       F  0.72556976  0.31727917  0.61275638    -0.16100
F2323       F  0.75431876  0.30064448  0.74147411    -0.16100
F2324       F  0.70329690  0.30785187  0.73064536    -0.13800
C2325       C  0.77418007  0.41684731  0.62285981     0.24200
C2326       C  0.79468031  0.43050904  0.65023521    -0.23900
C2327       C  0.78469064  0.41620373  0.68210229     0.19100
C2328       C  0.75411334  0.39063189  0.68682245     0.24200
C2329       C  0.73318405  0.37868494  0.65986782    -0.23800
C2330       C  0.74375222  0.39116865  0.62769964     0.19100
F2331       F  0.72402125  0.37922078  0.60113157    -0.13800
F2332       F  0.78302431  0.42912099  0.59160083    -0.16100
F2333       F  0.74438738  0.37871538  0.71807194    -0.16100
F2334       F  0.80356766  0.42826263  0.70933117    -0.13800
C2335       C  0.55578789  0.25397000  0.70549262     0.24200
C2336       C  0.53943081  0.23388091  0.67844247    -0.23900
C2337       C  0.55333555  0.24086645  0.64617509     0.19100
C2338       C  0.58382717  0.26636211  0.64150892     0.24200
C2339       C  0.60065935  0.28539366  0.66886307    -0.23800
C2340       C  0.58612367  0.27983885  0.70061574     0.19100
F2341       F  0.60214284  0.29832018  0.72726958    -0.13800
F2342       F  0.54279710  0.24796262  0.73673230    -0.16100
F2343       F  0.59758697  0.27147261  0.61068579    -0.16100
F2344       F  0.53848861  0.22146132  0.61963341    -0.13800
C2345       C  0.64388671  0.22254137  0.62559558     0.24200
C2346       C  0.63270074  0.20161474  0.65293307    -0.23900
C2347       C  0.62621325  0.21218807  0.68363316     0.19100
C2348       C  0.63383969  0.24385509  0.68773917     0.24200
C2349       C  0.64708847  0.26512715  0.66104882    -0.23800
C2350       C  0.65079832  0.25397017  0.62961512     0.19100
F2351       F  0.66188598  0.27384038  0.60298536    -0.13800
F2352       F  0.64924515  0.21291490  0.59530559    -0.16100
F2353       F  0.62969727  0.25411127  0.71820624    -0.16100
F2354       F  0.61488917  0.19269071  0.71057296    -0.13800
C2355       C  0.69226917  0.44602303  0.64294101     0.24200
C2356       C  0.69786174  0.46072142  0.67479558    -0.23900
C2357       C  0.69882943  0.44439229  0.70305699     0.19100
C2358       C  0.69360576  0.41346170  0.69955120     0.24200
C2359       C  0.68669785  0.39848057  0.66792000    -0.23800
C2360       C  0.68661014  0.41506666  0.63959742     0.19100
F2361       F  0.67950739  0.40069548  0.60899038    -0.13800
F2362       F  0.68977315  0.46070961  0.61536822    -0.16100
F2363       F  0.69363008  0.39746757  0.72718113    -0.16100
F2364       F  0.70411551  0.45810544  0.73395761    -0.13800
C2365       C  0.97509209  0.07987487  0.95793929     0.24200
C2366       C  0.96959617  0.09585301  0.98457151    -0.23900
C2367       C  0.46729184  0.08461430  0.01760079     0.19100
C2368       C  0.47260242  0.05949694  0.02394540     0.24200
C2369       C  0.97930469  0.04459768  0.99745015    -0.23800
C2370       C  0.97931249  0.05405459  0.96435215     0.19100
F2371       F  0.98483610  0.03909404  0.93835134    -0.13800
F2372       F  0.97739593  0.08982575  0.92583921    -0.16100
F2373       F  0.47270115  0.05071060  0.05608344    -0.16100
F2374       F  0.46224661  0.09935688  0.04416181    -0.13800
C2375       C  0.52719630  0.41087581  0.98483557     0.24200
C2376       C  0.52674147  0.39841733  0.01677412    -0.23900
C2377       C  0.02352424  0.41374012  0.04550580     0.19100
C2378       C  0.01870080  0.43957546  0.04226476     0.24200
C2379       C  0.51728575  0.45056558  0.01035958    -0.23800
C2380       C  0.52258699  0.43681948  0.98176767     0.19100
F2381       F  0.52154758  0.44742415  0.95077129    -0.13800
F2382       F  0.52950383  0.39648187  0.95634701    -0.16100
F2383       F  0.01399289  0.45301514  0.07019934    -0.16100
F2384       F  0.02378977  0.40294284  0.07665257    -0.13800
C2385       C  0.55701008  0.07686411  0.04109805     0.24200
C2386       C  0.54523889  0.06432329  0.00921093    -0.23900
C2387       C  0.55864452  0.08318869  0.98081036     0.19100
C2388       C  0.58428889  0.11394645  0.98407821     0.24200
C2389       C  0.59761491  0.12597657  0.01588424    -0.23800
C2390       C  0.58313195  0.10734924  0.04446444     0.19100
F2391       F  0.59506526  0.11800306  0.07553711    -0.13800
F2392       F  0.54422885  0.05881283  0.06884651    -0.16100
F2393       F  0.59758333  0.13078702  0.95570751    -0.16100
F2394       F  0.54829094  0.07110908  0.94970049    -0.13800
C2395       C  0.93439898  0.41263396  0.02802849     0.24200
C2396       C  0.95160460  0.43135441  0.00073718    -0.23900
C2397       C  0.94406877  0.41888381  0.96803984     0.19100
C2398       C  0.91821937  0.38863450  0.96245639     0.24200
C2399       C  0.89966533  0.37046401  0.98958859    -0.23800
C2400       C  0.90864787  0.38230071  0.02257673     0.19100
F2401       F  0.89102758  0.36567895  0.04945188    -0.13800
F2402       F  0.94143273  0.42446809  0.05975679    -0.16100
F2403       F  0.91068024  0.37757013  0.93051564    -0.16100
F2404       F  0.96066783  0.43683321  0.94138877    -0.13800
C2405       C  0.88226777  0.96357449  0.98073173     0.24200
C2406       C  0.86887321  0.46487830  0.01190776    -0.23900
C2407       C  0.88673231  0.47063135  0.04117058     0.19100
C2408       C  0.91795530  0.47709968  0.03902564     0.24200
C2409       C  0.93184225  0.47816889  0.00764897    -0.23800
C2410       C  0.91361022  0.97050517  0.97866944     0.19100
F2411       F  0.92659412  0.97116450  0.94817304    -0.13800
F2412       F  0.86589936  0.95803468  0.95182485    -0.16100
F2413       F  0.93505406  0.48342136  0.06748765    -0.16100
F2414       F  0.87426121  0.47091030  0.07172650    -0.13800
C2415       C  0.58253389  0.52093688  0.03106465     0.24200
C2416       C  0.56437561  0.01698415  0.00272004    -0.23900
C2417       C  0.57762305  0.01993986  0.97056773     0.19100
C2418       C  0.60827628  0.02509555  0.96672907     0.24200
C2419       C  0.62634586  0.02827597  0.99509195    -0.23800
C2420       C  0.61344798  0.52699158  0.02734121     0.19100
F2421       F  0.62985954  0.52903000  0.05536216    -0.13800
F2422       F  0.56985367  0.51740373  0.06229436    -0.16100
F2423       F  0.61995681  0.02607293  0.93540707    -0.16100
F2424       F  0.56024519  0.01633161  0.94291178    -0.13800
C2425       C  0.81151162  0.08110229  0.35715871     0.24200
C2426       C  0.82451646  0.10241340  0.33049239    -0.23900
C2427       C  0.82858454  0.09146173  0.29908452     0.19100
C2428       C  0.81992309  0.05957228  0.29441602     0.24200
C2429       C  0.80664596  0.03797633  0.32105066    -0.23800
C2430       C  0.80233168  0.04912162  0.35249167     0.19100
F2431       F  0.79021032  0.02939435  0.37918368    -0.13800
F2432       F  0.80708980  0.09123505  0.38759515    -0.16100
F2433       F  0.82427599  0.04981091  0.26374363    -0.16100
F2434       F  0.83989227  0.11142868  0.27257844    -0.13800
C2435       C  0.85982580  0.27971011  0.31678444     0.24200
C2436       C  0.85950567  0.29381302  0.34786770    -0.23900
C2437       C  0.85038408  0.27503703  0.37691851     0.19100
C2438       C  0.84208826  0.24300626  0.37495619     0.24200
C2439       C  0.84208942  0.22902449  0.34386556    -0.23800
C2440       C  0.85077122  0.24753726  0.31482411     0.19100
F2441       F  0.85107611  0.23449493  0.28457985    -0.13800
F2442       F  0.86776275  0.29669600  0.28797586    -0.16100
F2443       F  0.83457283  0.22575275  0.40351120    -0.16100
F2444       F  0.84975525  0.28774298  0.40727008    -0.13800
C2445       C  0.76492649  0.09547988  0.29168692     0.24200
C2446       C  0.77186487  0.11131042  0.32293428    -0.23900
C2447       C  0.75234114  0.09608141  0.35061950     0.19100
C2448       C  0.72829794  0.06443183  0.34802787     0.24200
C2449       C  0.72310973  0.04763713  0.31755433    -0.23800
C2450       C  0.74055901  0.06379266  0.28897709     0.19100
F2451       F  0.73532167  0.04837226  0.25905077    -0.13800
F2452       F  0.78322420  0.10996289  0.26444222    -0.16100
F2453       F  0.71022714  0.04999274  0.37547679    -0.16100
F2454       F  0.75824091  0.11109444  0.38086019    -0.13800
C2455       C  0.93387694  0.26703277  0.32102238     0.24200
C2456       C  0.94186159  0.28434415  0.35134649    -0.23900
C2457       C  0.92810842  0.26837009  0.38146791     0.19100
C2458       C  0.90447610  0.23626172  0.38074327     0.24200
C2459       C  0.89463753  0.21991609  0.34995614    -0.23800
C2460       C  0.91058958  0.23507335  0.32039117     0.19100
F2461       F  0.90143961  0.21971635  0.29040362    -0.13800
F2462       F  0.94835934  0.28120392  0.29179607    -0.16100
F2463       F  0.88948318  0.22184279  0.40964742    -0.16100
F2464       F  0.93613715  0.28427502  0.41122368    -0.13800
C2465       C  0.76617204  0.18262712  0.35327828     0.24200
C2466       C  0.78057702  0.17565721  0.32651076    -0.23900
C2467       C  0.76997506  0.17443140  0.29371334     0.19100
C2468       C  0.74471361  0.17947013  0.28781536     0.24200
C2469       C  0.73023627  0.18666093  0.31465685    -0.23800
C2470       C  0.74165987  0.18865554  0.34744897     0.19100
F2471       F  0.72812284  0.19481302  0.37430171    -0.13800
F2472       F  0.77520202  0.18259043  0.38528445    -0.16100
F2473       F  0.73435334  0.17710209  0.25592700    -0.16100
F2474       F  0.78407727  0.16826403  0.26743421    -0.13800
C2475       C  0.91969274  0.14571460  0.38449946     0.24200
C2476       C  0.93651557  0.14396636  0.35635803    -0.22100
C2477       C  0.92762005  0.14800310  0.32412431     0.19100
C2478       C  0.90291262  0.15411510  0.32016274     0.24200
C2479       C  0.88601451  0.15552837  0.34810972    -0.23800
C2480       C  0.89436089  0.15112708  0.38032045     0.19100
F2481       F  0.87807563  0.15227580  0.40764207    -0.13800
F2482       F  0.92776268  0.14222928  0.41593631    -0.16100
F2483       F  0.89598946  0.15948196  0.28896730    -0.16100
F2484       F  0.94398855  0.14786764  0.29638732    -0.13800
O2485       O  0.54603596  0.68460669  0.34457874    -0.87700
C2486       C  0.58481724  0.65298099  0.41206111     0.88300
Mg2487     Mg  0.51848996  0.65598810  0.30369305     1.58100
O2488       O  0.63487209  0.70851719  0.35228125    -0.87400
O2489       O  0.58536945  0.73196572  0.35413073    -0.74800
C2490       C  0.60292693  0.60042792  0.23025582     0.93400
O2491       O  0.51854821  0.61339903  0.36916495    -0.74600
O2492       O  0.57407718  0.59250430  0.23422240    -0.82100
Mg2493     Mg  0.53250498  0.66244648  0.39282996     1.58000
C2494       C  0.70104842  0.68809521  0.30964412     0.93300
O2495       O  0.54292723  0.70756742  0.42068253    -0.80300
H2496       H  0.65675379  0.75219141  0.33281885    -0.05700
C2497       C  0.60746599  0.61647390  0.32745949     0.88200
O2498       O  0.56023382  0.68238054  0.26708225    -0.74900
O2499       O  0.58031226  0.67350516  0.39951858    -0.87600
O2500       O  0.69227996  0.70066675  0.33225708    -0.80400
C2501       C  0.67458602  0.72242597  0.42933627     0.93400
C2502       C  0.56473803  0.73197444  0.43525565     0.93300
Mg2503     Mg  0.63508234  0.66822758  0.27560412     1.58000
O2504       O  0.62502437  0.62383245  0.24581756    -0.80400
O2505       O  0.64930733  0.71713742  0.29948720    -0.74600
O2506       O  0.65029214  0.72554717  0.43076357    -0.80400
O2507       O  0.98328708  0.65491681  0.38510213    -0.82100
O2508       O  0.51830211  0.60785398  0.23645396    -0.80500
C2509       C  0.64741395  0.72701983  0.32865247     0.87700
O2510       O  0.58739825  0.65778665  0.26908832    -0.87600
O2511       O  0.62083510  0.64549513  0.32383153    -0.87700
O2512       O  0.58156081  0.59833326  0.31307779    -0.74800
Mg2513     Mg  0.61529743  0.72364285  0.39174730     1.58000
O2514       O  0.67817881  0.70549657  0.40719922    -0.82100
H2515       H  0.54869372  0.72320200  0.32412369    -0.05900
O2516       O  0.53196925  0.62178064  0.31598542    -0.87400
H2517       H  0.51099298  0.57826361  0.33586578    -0.05700
H2518       H  0.59897609  0.69411908  0.23817028    -0.05900
C2519       C  0.52005743  0.60341199  0.33988317     0.87700
C2520       C  0.55921097  0.71352802  0.34043863     0.88300
C2521       C  0.58282361  0.67843849  0.25705382     0.88300
H2522       H  0.61765056  0.60642724  0.34373316    -0.05800
O2523       O  0.60701964  0.64843834  0.40199460    -0.74900
Mg2524     Mg  0.55216170  0.60779826  0.27561717     1.58000
H2525       H  0.56877914  0.63778262  0.43131201    -0.05900
C2526       C  0.96565469  0.64219564  0.35989702     0.93300
O2527       O  0.48906512  0.62559308  0.26156497    -0.82100
C2528       C  0.49349721  0.61002013  0.23851837     0.93400
O2529       O  0.59373923  0.74036026  0.43189715    -0.82100
Mg2530     Mg  0.64843044  0.67453301  0.36504793     1.58200
O2531       O  0.97403848  0.63026437  0.33615785    -0.80400
O2532       O  0.68387595  0.67497805  0.28420943    -0.82100
C2533       C  0.61166269  0.53040727  0.21356606    -0.10200
C2534       C  0.59817418  0.54884429  0.22203317    -0.04100
C2535       C  0.61103921  0.57980087  0.21031319    -0.10200
C2536       C  0.63602325  0.59161648  0.18635849     0.10700
C2537       C  0.64876564  0.57228497  0.17594187    -0.02000
C2538       C  0.63660167  0.54156645  0.18975206     0.10500
C2539       C  0.65011142  0.52304305  0.18004159    -0.12000
C2540       C  0.67529825  0.53457295  0.15733462    -0.12000
C2541       C  0.68821979  0.56524520  0.14391854     0.10500
C2542       C  0.67480627  0.58429613  0.15316453    -0.02000
C2543       C  0.64879164  0.62223149  0.17287733    -0.12100
C2544       C  0.67371617  0.63370130  0.14971319    -0.12100
C2545       C  0.68711103  0.61513487  0.13942058     0.10700
C2546       C  0.71277128  0.62668006  0.11621782    -0.10200
C2547       C  0.72639291  0.60794614  0.10845276    -0.04100
C2548       C  0.71413415  0.57726639  0.12136491    -0.10200
H2549       H  0.64123461  0.99944134  0.18995179     0.08000
H2550       H  0.68497170  0.51943999  0.15078074     0.08000
H2551       H  0.63937562  0.63746534  0.17998617     0.08200
H2552       H  0.68282447  0.65759055  0.14051844     0.08200
H2553       H  0.58034048  0.54065621  0.24175859     0.04600
H2554       H  0.74503033  0.61621529  0.08964048     0.04600
C2555       C  0.96632836  0.58898053  0.21785583    -0.10200
C2556       C  0.94839930  0.55789751  0.22963591    -0.04100
C2557       C  0.91747067  0.53815279  0.21922616    -0.10200
C2558       C  0.90462814  0.54869864  0.19430719     0.10700
C2559       C  0.92304202  0.57977242  0.18118152    -0.02000
C2560       C  0.95397061  0.60016730  0.19325536     0.10500
C2561       C  0.97164082  0.63110627  0.18053651    -0.12000
C2562       C  0.95933713  0.64163282  0.15573410    -0.12000
C2563       C  0.92872179  0.62179433  0.14349197     0.10500
C2564       C  0.91017821  0.59080606  0.15669272    -0.02000
C2565       C  0.87380152  0.52909266  0.18241012    -0.12100
C2566       C  0.86151509  0.53959897  0.15752608    -0.12100
C2567       C  0.87934735  0.57034465  0.14431727     0.10700
C2568       C  0.86737947  0.58107468  0.11866412    -0.10200
C2569       C  0.88545303  0.61201549  0.10687418    -0.04100
C2570       C  0.91622593  0.63197958  0.11803478    -0.10200
H2571       H  0.49533079  0.64715365  0.18928089     0.08000
H2572       H  0.97384953  0.66554921  0.14636817     0.08000
H2573       H  0.85923038  0.00525831  0.19189655     0.08200
H2574       H  0.83778930  0.52356221  0.14887658     0.08200
H2575       H  0.95737174  0.55021401  0.25008444     0.04600
H2576       H  0.87686670  0.61930853  0.08573765     0.04600
O2577       O  0.53788187  0.86685494  0.31324795    -0.87700
C2578       C  0.54821347  0.95473210  0.31262620     0.88300
Mg2579     Mg  0.53748869  0.84350269  0.35927373     1.58100
O2580       O  0.60997633  0.94421863  0.28033069    -0.87400
O2581       O  0.55434984  0.87571871  0.26143447    -0.74800
C2582       C  0.67055275  0.94231301  0.43174066     0.93400
O2583       O  0.51814912  0.89940547  0.37044767    -0.74600
O2584       O  0.64360269  0.91913505  0.43950414    -0.82100
Mg2585     Mg  0.50627479  0.88505773  0.31419922     1.58000
C2586       C  0.69840069  0.51384300  0.31614370     0.93300
O2587       O  0.48941938  0.87080498  0.25953950    -0.80300
H2588       H  0.62822841  0.92614956  0.24749611    -0.05700
C2589       C  0.62135116  0.97386583  0.37999528     0.88200
O2590       O  0.58744655  0.85226013  0.34731989    -0.74900
O2591       O  0.54468359  0.93024230  0.29885820    -0.87600
O2592       O  0.67714361  0.50422785  0.29407938    -0.80400
C2593       C  0.60584070  0.00516254  0.23715012     0.93400
C2594       C  0.49379741  0.88684425  0.23299241     0.93300
Mg2595     Mg  0.65753979  0.94561342  0.35084615     1.58000
O2596       O  0.67517799  0.95835115  0.40516199    -0.80400
O2597       O  0.64610775  0.93260752  0.29452864    -0.74600
O2598       O  0.58110530  0.97798150  0.23467383    -0.80400
O2599       O  0.96691854  0.83544341  0.32661140    -0.82100
O2600       O  0.58224910  0.85229401  0.43041454    -0.80500
C2601       C  0.62799508  0.93410666  0.27291168     0.87700
O2602       O  0.61865673  0.90038256  0.36602641    -0.87600
O2603       O  0.62636332  0.96445572  0.35299659    -0.87700
O2604       O  0.61070029  0.95549967  0.40502592    -0.74800
Mg2605     Mg  0.56699094  0.92761555  0.25253819     1.58000
O2606       O  0.62569581  0.51212559  0.26029295    -0.82100
H2607       H  0.53948917  0.83351335  0.28465243    -0.05900
O2608       O  0.55409866  0.88766571  0.38547810    -0.87400
H2609       H  0.53657589  0.90723529  0.41736838    -0.05700
H2610       H  0.63531702  0.87378040  0.34561158    -0.05900
C2611       C  0.53645366  0.89842234  0.39227709     0.87700
C2612       C  0.54362703  0.85751561  0.28659543     0.88300
C2613       C  0.61488147  0.87553057  0.35296085     0.88300
H2614       H  0.62608616  0.99805511  0.38235949    -0.05800
O2615       O  0.57547947  0.97780707  0.31927414    -0.74900
Mg2616     Mg  0.59709977  0.90317222  0.41298023     1.58000
H2617       H  0.52762405  0.95618716  0.32001391    -0.05900
C2618       C  0.96587859  0.81837905  0.35086765     0.93300
O2619       O  0.53630974  0.81895020  0.40670582    -0.82100
C2620       C  0.55692190  0.82547209  0.42894271     0.93400
O2621       O  0.52052948  0.91049342  0.22548872    -0.82100
Mg2622     Mg  0.62582449  0.98795538  0.30740371     1.58200
O2623       O  0.98711095  0.82971987  0.37291520    -0.80400
O2624       O  0.69694080  0.49543812  0.33919125    -0.82100
O2625       O  0.83151308  0.96219984  0.35355605    -0.87700
C2626       C  0.76067519  0.87025781  0.35266546     0.88300
Mg2627     Mg  0.85574996  0.98814252  0.30902456     1.58100
O2628       O  0.83430177  0.88821042  0.38548348    -0.87400
O2629       O  0.83921845  0.95374664  0.40513969    -0.74800
C2630       C  0.89976167  0.89475919  0.23348640     0.93400
O2631       O  0.78330069  0.92650579  0.29437433    -0.74600
O2632       O  0.89609722  0.91799548  0.22547530    -0.82100
Mg2633     Mg  0.78113859  0.93810012  0.35064075     1.58000
C2634       C  0.86440594  0.82643042  0.34878416     0.93300
O2635       O  0.77314754  0.94932136  0.40413213    -0.80300
H2636       H  0.86961868  0.90970416  0.41824601    -0.05700
C2637       C  0.82072569  0.86072233  0.28565357     0.88200
O2638       O  0.89867002  0.98284900  0.32112648    -0.74900
O2639       O  0.77976904  0.89558898  0.36621373    -0.87600
O2640       O  0.85004648  0.83383225  0.37056609    -0.80400
C2641       C  0.77074699  0.82210665  0.42628781     0.93400
C2642       C  0.76609875  0.93718809  0.43318017     0.93300
Mg2643     Mg  0.88466915  0.89320822  0.31489719     1.58000
O2644       O  0.88997452  0.88049192  0.26123409    -0.80400
O2645       O  0.88373425  0.90550910  0.37117561    -0.74600
O2646       O  0.77063418  0.84822016  0.42970557    -0.80400
O2647       O  0.78451650  0.98473893  0.33930835    -0.82100
O2648       O  0.89763734  0.98492957  0.23762065    -0.80500
C2649       C  0.86260365  0.90132192  0.39282476     0.87700
O2650       O  0.88690521  0.93647359  0.30017881    -0.87600
O2651       O  0.83454824  0.87029502  0.31263707    -0.87700
O2652       O  0.82746834  0.87935504  0.26099195    -0.74800
Mg2653     Mg  0.80388730  0.90062564  0.41339225     1.58000
O2654       O  0.78659658  0.81769572  0.40361476    -0.82100
H2655       H  0.86300701  0.99700556  0.38299200    -0.05900
O2656       O  0.83295470  0.94489936  0.28038153    -0.87400
H2657       H  0.79798493  0.92333707  0.24726558    -0.05700
H2658       H  0.92845282  0.96512219  0.32183804    -0.05900
C2659       C  0.80471150  0.93147324  0.27280621     0.87700
C2660       C  0.84525962  0.97219476  0.38048971     0.88300
C2661       C  0.90576059  0.96157145  0.31430797     0.88300
H2662       H  0.80249287  0.83610960  0.28302234    -0.05800
O2663       O  0.76776370  0.84900725  0.34579755    -0.74900
Mg2664     Mg  0.86360684  0.93249727  0.25311703     1.58000
H2665       H  0.73779736  0.86651138  0.34561057    -0.05900
C2666       C  0.80159423  0.50535384  0.31784979     0.93300
O2667       O  0.88103026  0.51522384  0.26300047    -0.82100
C2668       C  0.89743140  0.01100203  0.24083284     0.93400
O2669       O  0.77194641  0.91556661  0.44213284    -0.82100
Mg2670     Mg  0.81113143  0.84451365  0.35748884     1.58200
O2671       O  0.81701521  0.49923065  0.29610874    -0.80400
O2672       O  0.88051402  0.84587351  0.32597235    -0.82100
C2673       C  0.96574026  0.87984063  0.21320111    -0.10200
C2674       C  0.94893579  0.89468439  0.22401417    -0.04100
C2675       C  0.91848093  0.88492407  0.21256555    -0.10200
C2676       C  0.90451518  0.85996945  0.18880746     0.10700
C2677       C  0.92163722  0.84528196  0.17678709    -0.02000
C2678       C  0.95244720  0.85538636  0.18885847     0.10500
C2679       C  0.96887386  0.84045048  0.17671863    -0.12000
C2680       C  0.95542492  0.81615535  0.15284450    -0.12000
C2681       C  0.92475020  0.80539238  0.14095036     0.10500
C2682       C  0.90742868  0.81958248  0.15364670    -0.02000
C2683       C  0.87359155  0.84871348  0.17753680    -0.12100
C2684       C  0.85973043  0.82356990  0.15465244    -0.12100
C2685       C  0.87623429  0.80868100  0.14251928     0.10700
C2686       C  0.86236599  0.78310798  0.11946476    -0.10200
C2687       C  0.87939922  0.76872707  0.10795177    -0.04100
C2688       C  0.91078829  0.78057576  0.11689057    -0.10200
H2689       H  0.99240981  0.84769118  0.18539828     0.08000
H2690       H  0.96902019  0.80534501  0.14435462     0.08000
H2691       H  0.85992222  0.85936882  0.18630376     0.08200
H2692       H  0.83578875  0.81555850  0.14680852     0.08200
H2693       H  0.95863742  0.91232644  0.24399824     0.04600
H2694       H  0.86936641  0.75057464  0.08848772     0.04600
O2695       O  0.79588257  0.50095391  0.98176320    -0.87700
C2696       C  0.70567617  0.92683734  0.97634870     0.88300
Mg2697     Mg  0.82095545  0.52113615  0.02764084     1.58100
O2698       O  0.71787839  0.50110835  0.94832418    -0.87400
O2699       O  0.78553045  0.51129301  0.93165410    -0.74800
C2700       C  0.72320622  0.55625968  0.10344097     0.93400
O2701       O  0.75980104  0.94546354  0.03507849    -0.74600
O2702       O  0.74781151  0.55513915  0.11087619    -0.82100
Mg2703     Mg  0.77367848  0.95082110  0.97873608     1.58000
C2704       C  0.65596514  0.52744471  0.99209992     0.93300
O2705       O  0.78970854  0.95489609  0.92465879    -0.80300
H2706       H  0.73942041  0.53946361  0.91908319    -0.05700
C2707       C  0.69179747  0.97830118  0.04784865     0.88200
O2708       O  0.81431757  0.56430417  0.02065619    -0.74900
O2709       O  0.73056456  0.94911425  0.96566130    -0.87600
O2710       O  0.65841514  0.00956450  0.97018384    -0.80400
C2711       C  0.65502385  0.93559146  0.90565647     0.93400
C2712       C  0.77302681  0.94021466  0.89956692     0.93300
Mg2713     Mg  0.72263596  0.54437331  0.02439787     1.58000
O2714       O  0.70653516  0.54083853  0.07862718    -0.80400
O2715       O  0.73594738  0.54957224  0.96805560    -0.74600
O2716       O  0.68210491  0.93790196  0.90247136    -0.80400
O2717       O  0.81936640  0.95259002  0.98957794    -0.82100
O2718       O  0.81424584  0.55787044  0.09986859    -0.80500
C2719       C  0.73109807  0.53019612  0.94395478     0.87700
O2720       O  0.76589320  0.54624545  0.03727675    -0.87600
O2721       O  0.70040547  0.99411703  0.02182335    -0.87700
O2722       O  0.71041288  0.98477674  0.07248762    -0.74800
Mg2723     Mg  0.73341058  0.97341457  0.92011502     1.58000
O2724       O  0.64880427  0.94999209  0.92872289    -0.82100
H2725       H  0.82804520  0.53728068  0.95441666    -0.05900
O2726       O  0.77746396  0.99380472  0.05511912    -0.87400
H2727       H  0.75517942  0.95518319  0.08391044    -0.05700
H2728       H  0.79310447  0.59112232  0.02204994    -0.05900
C2729       C  0.76401938  0.96465278  0.05923378     0.87700
C2730       C  0.80425672  0.51735102  0.95611875     0.88300
C2731       C  0.79103113  0.56827822  0.02666930     0.88300
H2732       H  0.66789700  0.95861957  0.04977728    -0.05800
O2733       O  0.68231238  0.93047197  0.98300468    -0.74900
Mg2734     Mg  0.76267382  0.52244860  0.08322880     1.58000
H2735       H  0.70397108  0.90411088  0.98067547    -0.05900
C2736       C  0.83927175  0.96614294  0.01271451     0.93300
O2737       O  0.84644089  0.54323500  0.07552373    -0.82100
C2738       C  0.84085197  0.55901964  0.09745532     0.93400
O2739       O  0.74872780  0.94182831  0.89214907    -0.82100
Mg2740     Mg  0.67474230  0.97300726  0.97635495     1.58200
O2741       O  0.83575422  0.48341950  0.03459229    -0.80400
O2742       O  0.67701819  0.54203963  0.01390159    -0.82100
O2743       O  0.78712266  0.80597408  0.99451334    -0.87700
C2744       C  0.75127158  0.74038178  0.92108100     0.88300
Mg2745     Mg  0.81216115  0.80142244  0.03582390     1.58100
O2746       O  0.69886428  0.74307871  0.98110122    -0.87400
O2747       O  0.74997310  0.81664411  0.98452534    -0.74800
C2748       C  0.72334474  0.65604343  0.09639139     0.93400
O2749       O  0.81349916  0.76254421  0.96659463    -0.74600
O2750       O  0.75267882  0.67656945  0.09429549    -0.82100
Mg2751     Mg  0.80292081  0.80055068  0.94570484     1.58000
C2752       C  0.62915564  0.65480550  0.01819117     0.93300
O2753       O  0.79579540  0.83862259  0.91921635    -0.80300
H2754       H  0.67900761  0.76551417  0.00436793    -0.05700
C2755       C  0.72331534  0.67512537  0.00100319     0.88200
O2756       O  0.76934244  0.78480383  0.07078199    -0.74900
O2757       O  0.75530745  0.76513673  0.93472583    -0.87600
O2758       O  0.63931297  0.67394568  0.99373565    -0.80400
C2759       C  0.66205770  0.72001479  0.90189804     0.93400
C2760       C  0.77457441  0.84148935  0.90399344     0.93300
Mg2761     Mg  0.69572322  0.69759298  0.05491102     1.58000
O2762       O  0.70255475  0.65941336  0.08099221    -0.80400
O2763       O  0.68476954  0.73527993  0.03420667    -0.74600
O2764       O  0.68537215  0.74834786  0.90315707    -0.80400
O2765       O  0.85242570  0.83994800  0.95867336    -0.82100
O2766       O  0.81140790  0.74873319  0.09792822    -0.80500
C2767       C  0.68710365  0.74856859  0.00617998     0.87700
O2768       O  0.74308485  0.73288496  0.06561112    -0.87600
O2769       O  0.71117249  0.69171435  0.00600724    -0.87700
O2770       O  0.74821147  0.68089652  0.01604611    -0.74800
Mg2771     Mg  0.72060892  0.78014799  0.94405324     1.58000
O2772       O  0.65871178  0.69867249  0.92211882    -0.82100
H2773       H  0.78540780  0.84198350  0.01737152    -0.05900
O2774       O  0.79867373  0.75409930  0.01951087    -0.87400
H2775       H  0.81857244  0.73171343  0.99620362    -0.05700
H2776       H  0.73046382  0.75605356  0.09847237    -0.05900
C2777       C  0.81062466  0.74878210  0.99446624     0.87700
C2778       C  0.77495772  0.82254583  0.99948876     0.88300
C2779       C  0.74713679  0.75758752  0.07946692     0.88300
H2780       H  0.71292467  0.65578867  0.98299968    -0.05800
O2781       O  0.72904586  0.71323460  0.92987788    -0.74900
Mg2782     Mg  0.77722897  0.71722062  0.05663852     1.58000
H2783       H  0.76794057  0.74180943  0.90212655    -0.05900
C2784       C  0.86875316  0.84179859  0.98400407     0.93300
O2785       O  0.83919495  0.79805708  0.07831138    -0.82100
C2786       C  0.83522053  0.77670379  0.09883278     0.93400
O2787       O  0.74531121  0.82072960  0.90642232    -0.82100
Mg2788     Mg  0.68595689  0.69572656  0.96470361     1.58200
O2789       O  0.85791237  0.82043920  0.00620370    -0.80400
O2790       O  0.64648768  0.65855243  0.04317034    -0.82100
O2791       O  0.51549242  0.70811115  0.99164121    -0.87700
C2792       C  0.98852592  0.74631763  0.91963327     0.88300
Mg2793     Mg  0.48473925  0.68178146  0.03231060     1.58100
O2794       O  0.54221253  0.79716165  0.98064383    -0.87400
O2795       O  0.56361791  0.74560748  0.98245800    -0.74800
C2796       C  0.92949096  0.77038816  0.09629407     0.93400
O2797       O  0.94666249  0.68195173  0.96339126    -0.74600
O2798       O  0.92014418  0.74090519  0.09290775    -0.82100
Mg2799     Mg  0.99574104  0.69349192  0.94254849     1.58000
C2800       C  0.52431615  0.86698070  0.01940124     0.93300
O2801       O  0.54130179  0.70169162  0.91605817    -0.80300
H2802       H  0.58409698  0.81696395  0.00331108    -0.05700
C2803       C  0.95027302  0.77316677  0.00057102     0.88200
O2804       O  0.51027966  0.72394963  0.06849891    -0.74900
O2805       O  0.00848970  0.74171091  0.93306768    -0.87600
O2806       O  0.53445992  0.85714175  0.99530881    -0.80400
C2807       C  0.55915317  0.83607621  0.90265741     0.93400
C2808       C  0.56585806  0.72335168  0.90133421     0.93300
Mg2809     Mg  0.99903789  0.79934002  0.05465129     1.58000
O2810       O  0.95405172  0.79175710  0.08139339    -0.80400
O2811       O  0.54789530  0.81082854  0.03381363    -0.74600
O2812       O  0.56329293  0.81223339  0.90305447    -0.80400
O2813       O  0.98579162  0.64358588  0.95406635    -0.82100
O2814       O  0.93222449  0.68225536  0.09472615    -0.80500
C2815       C  0.55913398  0.80877047  0.00553174     0.87700
O2816       O  0.98598818  0.75120248  0.06362998    -0.87600
O2817       O  0.97874658  0.78511264  0.00563530    -0.87700
O2818       O  0.93058831  0.74762310  0.01479770    -0.74800
Mg2819     Mg  0.55806275  0.77616757  0.94297595     1.58000
O2820       O  0.54102439  0.83943405  0.92313631    -0.82100
H2821       H  0.55216275  0.70911505  0.01430421    -0.05900
O2822       O  0.95201848  0.69606861  0.01651093    -0.87400
H2823       H  0.91029672  0.67619788  0.99345059    -0.05700
H2824       H  0.52017996  0.76268659  0.09705433    -0.05900
C2825       C  0.93526687  0.68435725  0.99148631     0.87700
C2826       C  0.54394941  0.72012803  0.99679567     0.88300
C2827       C  0.50563800  0.74644455  0.07757374     0.88300
H2828       H  0.94206681  0.78425819  0.98315222    -0.05800
O2829       O  0.98391261  0.76877398  0.92895824    -0.74900
Mg2830     Mg  0.93636876  0.71722786  0.05428295     1.58000
H2831       H  0.97370901  0.72998743  0.90035727    -0.05900
C2832       C  0.97079320  0.62652026  0.97908345     0.93300
O2833       O  0.95320764  0.65385963  0.07463817    -0.82100
C2834       C  0.93614960  0.65832500  0.09568531     0.93400
O2835       O  0.57464840  0.75273484  0.90451127    -0.82100
Mg2836     Mg  0.00927072  0.81123740  0.96490758     1.58200
O2837       O  0.95880173  0.63654848  0.00102354    -0.80400
O2838       O  0.50983638  0.84930464  0.04418707    -0.82100
O2839       O  0.66725850  0.62886801  0.68651204    -0.87700
C2840       C  0.59516287  0.53670511  0.68753783     0.88300
Mg2841     Mg  0.69076852  0.65505355  0.64217865     1.58100
O2842       O  0.66866419  0.55180157  0.71860495    -0.87400
O2843       O  0.67565184  0.61851560  0.73729161    -0.74800
C2844       C  0.72958406  0.55994726  0.56509364     0.93400
O2845       O  0.61619120  0.59264793  0.62895580    -0.74600
O2846       O  0.72706947  0.58395152  0.55797815    -0.82100
Mg2847     Mg  0.61699549  0.60483730  0.68517082     1.58000
C2848       C  0.69838871  0.99111396  0.67785939     0.93300
O2849       O  0.61386402  0.61839401  0.73892965    -0.80300
H2850       H  0.70524872  0.57337118  0.74983151    -0.05700
C2851       C  0.65072724  0.52575814  0.61875975     0.88200
O2852       O  0.73290904  0.64805027  0.65221655    -0.74900
O2853       O  0.61587359  0.56204854  0.69951338    -0.87600
O2854       O  0.68131469  0.99451876  0.69994536    -0.80400
C2855       C  0.60362827  0.98702530  0.76004199     0.93400
C2856       C  0.60322144  0.60323645  0.76604254     0.93300
Mg2857     Mg  0.71565613  0.55764801  0.64520659     1.58000
O2858       O  0.71661341  0.54342700  0.59093019    -0.80400
O2859       O  0.71760951  0.57004366  0.70169731    -0.74600
O2860       O  0.60451364  0.51366298  0.76241327    -0.80400
O2861       O  0.61848877  0.65047170  0.67318236    -0.82100
O2862       O  0.72978882  0.64964588  0.57015648    -0.80500
C2863       C  0.69726930  0.56516134  0.72458662     0.87700
O2864       O  0.71754935  0.60079279  0.63202069    -0.87600
O2865       O  0.66551543  0.53424807  0.64535379    -0.87700
O2866       O  0.65748107  0.54495598  0.59452026    -0.74800
Mg2867     Mg  0.63921653  0.56558788  0.74615890     1.58000
O2868       O  0.61934231  0.98155463  0.73795362    -0.82100
H2869       H  0.70047552  0.66209101  0.71596018    -0.05900
O2870       O  0.66547852  0.61195157  0.61296460    -0.87400
H2871       H  0.62953255  0.59039776  0.58100273    -0.05700
H2872       H  0.76064587  0.62794407  0.65108278    -0.05900
C2873       C  0.63699589  0.59836303  0.60641889     0.87700
C2874       C  0.68183975  0.63765905  0.71318705     0.88300
C2875       C  0.73812499  0.62562688  0.64497307     0.88300
H2876       H  0.63164652  0.50152792  0.61604583    -0.05800
O2877       O  0.60039657  0.51410985  0.68125916    -0.74900
Mg2878     Mg  0.69466118  0.59798056  0.58557893     1.58000
H2879       H  0.57241749  0.53395764  0.68168160    -0.05900
C2880       C  0.63429633  0.67200970  0.65201221     0.93300
O2881       O  0.71621708  0.68212595  0.59609670    -0.82100
C2882       C  0.73154066  0.67657471  0.57365385     0.93400
O2883       O  0.60708676  0.58013480  0.77384001    -0.82100
Mg2884     Mg  0.64331916  0.50812907  0.69062980     1.58200
O2885       O  0.65421953  0.67035736  0.63249985    -0.80400
O2886       O  0.71304081  0.01182527  0.65568992    -0.82100
C2887       C  0.58555592  0.71382396  0.88155387    -0.10200
C2888       C  0.61676493  0.72620823  0.89166623    -0.04100
C2889       C  0.63480385  0.71271426  0.88080306    -0.10200
C2890       C  0.62198166  0.68725591  0.85748473     0.10700
C2891       C  0.59110800  0.67598689  0.84500181    -0.02000
C2892       C  0.57284972  0.68939674  0.85694046     0.10500
C2893       C  0.54252064  0.67820299  0.84381732    -0.12000
C2894       C  0.53035036  0.65430583  0.81936180    -0.12000
C2895       C  0.54779148  0.64024691  0.80763873     0.10500
C2896       C  0.57815697  0.65066736  0.82125470    -0.02000
C2897       C  0.63922597  0.67282688  0.84637870    -0.12100
C2898       C  0.62649602  0.64790961  0.82316928    -0.12100
C2899       C  0.59605102  0.63651257  0.81037384     0.10700
C2900       C  0.58330730  0.61179385  0.78632033    -0.10200
C2901       C  0.55311900  0.60128483  0.77367452    -0.04100
C2902       C  0.53568384  0.61582940  0.78291072    -0.10200
H2903       H  0.52817131  0.68830253  0.85189934     0.08000
H2904       H  0.50689748  0.64658336  0.81012660     0.08000
H2905       H  0.66287782  0.68098440  0.85531260     0.08200
H2906       H  0.64067350  0.63753346  0.81533611     0.08200
H2907       H  0.62588575  0.74417755  0.91136659     0.04600
H2908       H  0.54436793  0.58353732  0.75374573     0.04600
C2909       C  0.62891828  0.91427438  0.88342566    -0.10200
C2910       C  0.61037849  0.88282580  0.89376266    -0.04100
C2911       C  0.57970579  0.86354348  0.88179772    -0.10200
C2912       C  0.56762361  0.87537762  0.85758688     0.10700
C2913       C  0.58688621  0.90662850  0.84529547    -0.02000
C2914       C  0.61777466  0.92609272  0.85798779     0.10500
C2915       C  0.63649360  0.95693497  0.84524161    -0.12000
C2916       C  0.62524419  0.96821093  0.81999065    -0.12000
C2917       C  0.59437762  0.94957604  0.80779727     0.10500
C2918       C  0.57475330  0.91885346  0.82126457    -0.02000
C2919       C  0.53663372  0.85689111  0.84578412    -0.12100
C2920       C  0.52468309  0.86894506  0.82231377    -0.12100
C2921       C  0.54336491  0.89983978  0.80980597     0.10700
C2922       C  0.53157897  0.91205037  0.78568682    -0.10200
C2923       C  0.55108349  0.94253298  0.77285385    -0.04100
C2924       C  0.58260085  0.96070171  0.78231264    -0.10200
H2925       H  0.66024821  0.97227555  0.85423201     0.08000
H2926       H  0.64066007  0.99192116  0.81053862     0.08000
H2927       H  0.52143378  0.83287811  0.85456212     0.08200
H2928       H  0.00059032  0.85392268  0.81411774     0.08200
H2929       H  0.61848003  0.87450205  0.91443195     0.04600
H2930       H  0.54271857  0.95066874  0.75225216     0.04600
O2931       O  0.97385663  0.62157336  0.67226963    -0.87700
C2932       C  0.90721279  0.58488594  0.74419496     0.88300
Mg2933     Mg  0.97002844  0.64725245  0.63112723     1.58100
O2934       O  0.91081579  0.53260648  0.68441263    -0.87400
O2935       O  0.98370386  0.58358604  0.68184101    -0.74800
C2936       C  0.82689723  0.55823424  0.56790309     0.93400
O2937       O  0.93087088  0.64867752  0.69982404    -0.74600
O2938       O  0.84736236  0.58768131  0.57079905    -0.82100
Mg2939     Mg  0.96781258  0.63704440  0.72114987     1.58000
C2940       C  0.82369275  0.96211666  0.64697294     0.93300
O2941       O  0.50487755  0.62903118  0.74811685    -0.80300
H2942       H  0.93322375  0.51233939  0.66199255    -0.05700
C2943       C  0.84356443  0.55686835  0.66378753     0.88200
O2944       O  0.95364836  0.60438115  0.59567095    -0.74900
O2945       O  0.93204214  0.58909259  0.73101505    -0.87600
O2946       O  0.84337499  0.97233835  0.67078969    -0.80400
C2947       C  0.88781711  0.49560170  0.76374308     0.93400
C2948       C  0.00705379  0.60715859  0.76309827     0.93300
Mg2949     Mg  0.86660151  0.52936589  0.61022065     1.58000
O2950       O  0.82950945  0.53678101  0.58315690    -0.80400
O2951       O  0.90358230  0.51804972  0.63145812    -0.74600
O2952       O  0.91552536  0.51960991  0.76282825    -0.80400
O2953       O  0.50759262  0.68674803  0.70924509    -0.82100
O2954       O  0.91851310  0.64749596  0.56877600    -0.80500
C2955       C  0.91649379  0.52056496  0.65968210     0.87700
O2956       O  0.90207956  0.57748055  0.60029610    -0.87600
O2957       O  0.85990309  0.54446066  0.65899277    -0.87700
O2958       O  0.84988286  0.58229273  0.64909815    -0.74800
Mg2959     Mg  0.94696635  0.55414187  0.72188492     1.58000
O2960       O  0.86668663  0.49142826  0.74301454    -0.82100
H2961       H  0.00953645  0.61959420  0.64955718    -0.05900
O2962       O  0.92285476  0.63357387  0.64699766    -0.87400
H2963       H  0.90093474  0.65428301  0.66959397    -0.05700
H2964       H  0.92563261  0.56532291  0.56758105    -0.05900
C2965       C  0.91754652  0.64589211  0.67176109     0.87700
C2966       C  0.99006578  0.60906050  0.66724332     0.88300
C2967       C  0.92680994  0.58187432  0.58669615     0.88300
H2968       H  0.82399235  0.54627444  0.68134341    -0.05800
O2969       O  0.88042061  0.56228498  0.73522938    -0.74900
Mg2970     Mg  0.88672279  0.61208597  0.60928180     1.58000
H2971       H  0.90827175  0.60166190  0.76296142    -0.05900
C2972       C  0.51025462  0.70342731  0.68384301     0.93300
O2973       O  0.96731167  0.67507316  0.58888260    -0.82100
C2974       C  0.94637060  0.67138029  0.56816047     0.93400
O2975       O  0.98623383  0.57791502  0.76002435    -0.82100
Mg2976     Mg  0.86370071  0.51894639  0.70035531     1.58200
O2977       O  0.48934337  0.69314683  0.66130770    -0.80400
O2978       O  0.82722711  0.97952178  0.62192130    -0.82100
O2979       O  0.87764528  0.85081849  0.67584012    -0.87700
C2980       C  0.91461125  0.82113948  0.74627661     0.88300
Mg2981     Mg  0.85216426  0.82127741  0.63427358     1.58100
O2982       O  0.96683157  0.87656029  0.68719156    -0.87400
O2983       O  0.91580807  0.89873975  0.68562078    -0.74800
C2984       C  0.94130219  0.76689999  0.56754424     0.93400
O2985       O  0.85107862  0.78056368  0.70161431    -0.74600
O2986       O  0.91201548  0.75781633  0.57066104    -0.82100
Mg2987     Mg  0.86253792  0.82942264  0.72426659     1.58000
C2988       C  0.53724447  0.85891073  0.64798116     0.93300
O2989       O  0.87060797  0.87466605  0.75197256    -0.80300
H2990       H  0.98823494  0.91973604  0.66658967    -0.05700
C2991       C  0.94196987  0.78417786  0.66432084     0.88200
O2992       O  0.89501544  0.84779980  0.59922973    -0.74900
O2993       O  0.91041647  0.84180845  0.73361883    -0.87600
O2994       O  0.52685832  0.86745756  0.67304046    -0.80400
C2995       C  0.00397420  0.89142341  0.76529900     0.93400
C2996       C  0.89202479  0.89930791  0.76684043     0.93300
Mg2997     Mg  0.97015897  0.83549345  0.61198684     1.58000
O2998       O  0.96246386  0.79105510  0.58321912    -0.80400
O2999       O  0.98219271  0.88422842  0.63463072    -0.74600
O3000       O  0.98041279  0.89581771  0.76525522    -0.80400
O3001       O  0.81282878  0.81962831  0.71317343    -0.82100
O3002       O  0.85337799  0.77096896  0.56913712    -0.80500
C3003       C  0.97954718  0.89458037  0.66324433     0.87700
O3004       O  0.92224291  0.82332949  0.60304930    -0.87600
O3005       O  0.95490244  0.81310195  0.66015163    -0.87700
O3006       O  0.91655111  0.76540462  0.64947518    -0.74800
Mg3007     Mg  0.94524579  0.89185652  0.72510009     1.58000
O3008       O  0.00716943  0.87328648  0.74453839    -0.82100
H3009       H  0.87982331  0.88863748  0.65396735    -0.05900
O3010       O  0.86583063  0.78759139  0.64865486    -0.87400
H3011       H  0.84552812  0.74482429  0.67021672    -0.05700
H3012       H  0.93437806  0.85935883  0.57154436    -0.05900
C3013       C  0.85376826  0.76993779  0.67308786     0.87700
C3014       C  0.89026869  0.87963381  0.67123372     0.88300
C3015       C  0.91778838  0.84376177  0.59018449     0.88300
H3016       H  0.95205530  0.77477076  0.68155822    -0.05800
O3017       O  0.93691571  0.81656115  0.73677794    -0.74900
Mg3018     Mg  0.88757380  0.77314907  0.60999296     1.58000
H3019       H  0.89803317  0.80565565  0.76499568    -0.05900
C3020       C  0.79626807  0.80550803  0.68759076     0.93300
O3021       O  0.82463490  0.79069555  0.59125494    -0.82100
C3022       C  0.82907664  0.77418700  0.56935343     0.93400
O3023       O  0.92125355  0.90816821  0.76371447    -0.82100
Mg3024     Mg  0.97999320  0.84242651  0.70199343     1.58200
O3025       O  0.80663616  0.79463363  0.66472742    -0.80400
O3026       O  0.51994242  0.84557858  0.62260068    -0.82100
C3027       C  0.78187154  0.91965702  0.88082733    -0.10200
C3028       C  0.77063890  0.88916780  0.89366057    -0.04100
C3029       C  0.78426294  0.87080033  0.88444806    -0.10200
C3030       C  0.80882321  0.88259874  0.85993245     0.10700
C3031       C  0.82004722  0.91336207  0.84635972    -0.02000
C3032       C  0.80666935  0.93202646  0.85709223     0.10500
C3033       C  0.81865701  0.96277964  0.84421464    -0.12000
C3034       C  0.84311788  0.97489625  0.82074754    -0.12000
C3035       C  0.85657633  0.95677259  0.80955354     0.10500
C3036       C  0.84514259  0.92581792  0.82251165    -0.02000
C3037       C  0.82220675  0.86445462  0.84828170    -0.12100
C3038       C  0.84618163  0.87630845  0.82399619    -0.12100
C3039       C  0.85800793  0.90693441  0.81077244     0.10700
C3040       C  0.88242530  0.91933044  0.78618678    -0.10200
C3041       C  0.89448989  0.95048207  0.77517618    -0.04100
C3042       C  0.88113402  0.96880689  0.78552116    -0.10200
H3043       H  0.80896887  0.97762201  0.85198331     0.08000
H3044       H  0.85161460  0.99872510  0.81157635     0.08000
H3045       H  0.81390833  0.84069021  0.85746302     0.08200
H3046       H  0.85572341  0.86140726  0.81600259     0.08200
H3047       H  0.75280823  0.88073525  0.91337117     0.04600
H3048       H  0.91209624  0.95926116  0.75522213     0.04600
C3049       C  0.55174663  0.79977210  0.45171385    -0.10200
C3050       C  0.56646545  0.78255107  0.44253562    -0.04100
C3051       C  0.55553922  0.75198191  0.45459974    -0.10200
C3052       C  0.53084750  0.73900749  0.47866684     0.10700
C3053       C  0.51657351  0.75681334  0.48945336    -0.02000
C3054       C  0.52714043  0.78744074  0.47609839     0.10500
C3055       C  0.51257696  0.80466126  0.48715257    -0.12000
C3056       C  0.98816401  0.79201979  0.51100221    -0.12000
C3057       C  0.97672284  0.76127127  0.52378490     0.10500
C3058       C  0.99075442  0.74333207  0.51242365    -0.02000
C3059       C  0.51985267  0.70850666  0.49184883    -0.12100
C3060       C  0.99461045  0.69530834  0.51438625    -0.12100
C3061       C  0.97952699  0.71217491  0.52464344     0.10700
C3062       C  0.95349468  0.69866082  0.54692632    -0.10200
C3063       C  0.93907277  0.71611638  0.55685542    -0.04100
C3064       C  0.95137658  0.74771033  0.54730459    -0.10200
H3065       H  0.52027622  0.82823198  0.47767762     0.08000
H3066       H  0.97771413  0.80619293  0.51869452     0.08000
H3067       H  0.53073628  0.69457189  0.48482512     0.08200
H3068       H  0.98666126  0.67152611  0.52336213     0.08200
H3069       H  0.58397797  0.79139589  0.42248867     0.04600
H3070       H  0.92053062  0.70634237  0.57581235     0.04600
C3071       C  0.70220102  0.74383310  0.44949247    -0.10200
C3072       C  0.72008975  0.77475560  0.43727228    -0.04100
C3073       C  0.75090288  0.79490859  0.44790422    -0.10200
C3074       C  0.76391851  0.78475835  0.47306660     0.10700
C3075       C  0.74558702  0.75385470  0.48659222    -0.02000
C3076       C  0.71460680  0.73322484  0.47464561     0.10500
C3077       C  0.69687242  0.70264713  0.48812212    -0.12000
C3078       C  0.70914358  0.69264850  0.51342973    -0.12000
C3079       C  0.73989377  0.71258087  0.52538418     0.10500
C3080       C  0.75855384  0.74321311  0.51140693    -0.02000
C3081       C  0.79482348  0.80453247  0.48479263    -0.12100
C3082       C  0.80736162  0.79425137  0.50969682    -0.12100
C3083       C  0.78961990  0.76366938  0.52325243     0.10700
C3084       C  0.80187400  0.75291210  0.54859000    -0.10200
C3085       C  0.78326917  0.72239547  0.56165801    -0.04100
C3086       C  0.75223846  0.70284187  0.55145643    -0.10200
H3087       H  0.67312580  0.68648541  0.47961014     0.08000
H3088       H  0.69445957  0.66898998  0.52335991     0.08000
H3089       H  0.80938471  0.82828575  0.47504751     0.08200
H3090       H  0.83117761  0.81029857  0.51809625     0.08200
H3091       H  0.71108983  0.78209582  0.41655172     0.04600
H3092       H  0.79183689  0.71513290  0.58283462     0.04600
C3093       C  0.69839798  0.94974340  0.45213542    -0.10200
C3094       C  0.71607713  0.93561526  0.44211960    -0.04100
C3095       C  0.74665931  0.94638806  0.45402887    -0.10200
C3096       C  0.75957120  0.97141923  0.47798461     0.10700
C3097       C  0.74157830  0.98554889  0.48891559    -0.02000
C3098       C  0.71087988  0.97457759  0.47597486     0.10500
C3099       C  0.69364774  0.98913575  0.48660186    -0.12000
C3100       C  0.70637050  0.51430994  0.50937824    -0.12000
C3101       C  0.73689285  0.52601239  0.52200464     0.10500
C3102       C  0.75481194  0.51171497  0.51168115    -0.02000
C3103       C  0.79022203  0.98341580  0.49045236    -0.12100
C3104       C  0.80289480  0.50860680  0.51360922    -0.12100
C3105       C  0.78551851  0.52299495  0.52473375     0.10700
C3106       C  0.79799613  0.54862589  0.54820804    -0.10200
C3107       C  0.78028308  0.56298984  0.55708627    -0.04100
C3108       C  0.74970782  0.55141583  0.54517294    -0.10200
H3109       H  0.67011404  0.98112683  0.47738186     0.08000
H3110       H  0.69221380  0.52484001  0.51674385     0.08000
H3111       H  0.80456670  0.97326772  0.48247776     0.08200
H3112       H  0.82666072  0.51704263  0.52227872     0.08200
H3113       H  0.70699138  0.91780317  0.42226112     0.04600
H3114       H  0.78914746  0.58141025  0.57631784     0.04600
C3115       C  0.98874026  0.52068064  0.00405443     0.02900
C3116       C  0.52107970  0.53028201  0.00573531     0.02900
C3117       C  0.53060047  0.00731989  0.00626989     0.02900
C3118       C  0.00774573  0.97481932  0.00700312     0.02900
C3119       C  0.97545394  0.96523585  0.00567875     0.02900
C3120       C  0.96587207  0.98815976  0.00541935     0.02900
C3121       C  0.82929121  0.63493701  0.33408052     0.02900
C3122       C  0.85897626  0.66070103  0.34319171     0.02900
C3123       C  0.86287798  0.69138703  0.34665337     0.02900
C3124       C  0.83692782  0.69611539  0.34191669     0.02900
C3125       C  0.80725985  0.67029604  0.33274693     0.02900
C3126       C  0.80340421  0.63965049  0.32892174     0.02900
C3127       C  0.67674673  0.86448699  0.66507695     0.02900
C3128       C  0.69944031  0.85471386  0.66507462     0.02900
C3129       C  0.68963701  0.82209179  0.66656153     0.02900
C3130       C  0.65718450  0.79927828  0.66545416     0.02900
C3131       C  0.63457712  0.80922792  0.66530983     0.02900
C3132       C  0.64433320  0.84180196  0.66405038     0.02900
C3133       C  0.60729843  0.84845500  0.62702721     0.24200
C3134       C  0.62047776  0.85171536  0.65888502    -0.23900
C3135       C  0.60958386  0.86250756  0.68580726     0.19100
C3136       C  0.58427372  0.86781438  0.68152942     0.24200
C3137       C  0.56895734  0.86178574  0.65018765    -0.23800
C3138       C  0.58179071  0.85343370  0.62263584     0.19100
F3139       F  0.56888663  0.84872232  0.59169236    -0.13800
F3140       F  0.61845167  0.83923051  0.60036871    -0.16100
F3141       F  0.57360501  0.87683986  0.70876961    -0.16100
F3142       F  0.62231744  0.86621481  0.71670700    -0.13800
C3143       C  0.73167019  0.81179467  0.64423035     0.24200
C3144       C  0.71350390  0.81227935  0.67140808    -0.23900
C3145       C  0.72061043  0.80721952  0.70397504     0.19100
C3146       C  0.74683530  0.80359648  0.70951530     0.24200
C3147       C  0.76575067  0.80413579  0.68235391    -0.23800
C3148       C  0.75735898  0.80744484  0.64955194     0.19100
F3149       F  0.77555028  0.80913428  0.62273608    -0.13800
F3150       F  0.72564639  0.81740812  0.61271075    -0.16100
F3151       F  0.75424367  0.80051590  0.74140064    -0.16100
F3152       F  0.70324507  0.80776472  0.73057522    -0.13800
C3153       C  0.77419991  0.91688767  0.62280816     0.24200
C3154       C  0.79470370  0.93053235  0.65018339    -0.23900
C3155       C  0.78471749  0.91621490  0.68204478     0.19100
C3156       C  0.75414031  0.89064378  0.68676045     0.24200
C3157       C  0.73320748  0.87871545  0.65980821    -0.23800
C3158       C  0.74377086  0.89121332  0.62764448     0.19100
F3159       F  0.72403522  0.87928306  0.60107847    -0.13800
F3160       F  0.78304089  0.92917615  0.59155434    -0.16100
F3161       F  0.74441684  0.87871043  0.71800453    -0.16100
F3162       F  0.80359692  0.92826210  0.70927334    -0.13800
C3163       C  0.55582397  0.75399458  0.70549557     0.24200
C3164       C  0.53946223  0.73392271  0.67843487    -0.23900
C3165       C  0.55335585  0.74094166  0.64616206     0.19100
C3166       C  0.58384323  0.76644464  0.64150054     0.24200
C3167       C  0.60068211  0.78545198  0.66886352    -0.23800
C3168       C  0.58615546  0.77987311  0.70062247     0.19100
F3169       F  0.60218142  0.79833667  0.72728387    -0.13800
F3170       F  0.54284419  0.74795991  0.73674062    -0.16100
F3171       F  0.59759588  0.77158289  0.61067151    -0.16100
F3172       F  0.53850514  0.72156026  0.61960639    -0.13800
C3173       C  0.64393057  0.72257912  0.62562307     0.24200
C3174       C  0.63273408  0.70165524  0.65296368    -0.23900
C3175       C  0.62622803  0.71223162  0.68365159     0.19100
C3176       C  0.63384362  0.74389754  0.68774366     0.24200
C3177       C  0.64709807  0.76516532  0.66104985    -0.23800
C3178       C  0.65083023  0.75400552  0.62962789     0.19100
F3179       F  0.66193801  0.77387424  0.60299777    -0.13800
F3180       F  0.64931498  0.71295450  0.59534490    -0.16100
F3181       F  0.62969326  0.75415871  0.71820417    -0.16100
F3182       F  0.61489773  0.69273990  0.71059513    -0.13800
C3183       C  0.69224307  0.94604563  0.64289447     0.24200
C3184       C  0.69786017  0.96074946  0.67474692    -0.23900
C3185       C  0.69887902  0.94444060  0.70299906     0.19100
C3186       C  0.69367126  0.91351678  0.69948924     0.24200
C3187       C  0.68673472  0.89852619  0.66786246    -0.23800
C3188       C  0.68660913  0.91509925  0.63954542     0.19100
F3189       F  0.67949127  0.90072337  0.60894113    -0.13800
F3190       F  0.68969991  0.96071605  0.61533315    -0.16100
F3191       F  0.69373968  0.89753831  0.72711274    -0.16100
F3192       F  0.70420002  0.95816736  0.73389462    -0.13800
C3193       C  0.97504380  0.57986344  0.95792840     0.24200
C3194       C  0.96956295  0.59584612  0.98456721    -0.23900
C3195       C  0.46726178  0.58460179  0.01759356     0.19100
C3196       C  0.47257195  0.55948183  0.02392911     0.24200
C3197       C  0.97927432  0.54458722  0.99742858    -0.23800
C3198       C  0.97926773  0.55404291  0.96433266     0.19100
F3199       F  0.98477631  0.53907876  0.93832442    -0.13800
F3200       F  0.97732636  0.58980891  0.92582905    -0.16100
F3201       F  0.47266581  0.55068508  0.05606379    -0.16100
F3202       F  0.46221730  0.59933939  0.04415984    -0.13800
C3203       C  0.52728139  0.91092295  0.98487263     0.24200
C3204       C  0.52679516  0.89845248  0.01681419    -0.23900
C3205       C  0.02355427  0.91376885  0.04553856     0.19100
C3206       C  0.01873137  0.93960336  0.04228529     0.24200
C3207       C  0.51733989  0.95059971  0.01037597    -0.23800
C3208       C  0.52267195  0.93686619  0.98179301     0.19100
F3209       F  0.52166146  0.94748147  0.95079281    -0.13800
F3210       F  0.52962015  0.89654139  0.95638947    -0.16100
F3211       F  0.01400135  0.95303720  0.07021145    -0.16100
F3212       F  0.02379437  0.90296558  0.07668933    -0.13800
C3213       C  0.55700135  0.57682660  0.04108967     0.24200
C3214       C  0.54521150  0.56429833  0.00920412    -0.23900
C3215       C  0.55861491  0.58316845  0.98080631     0.19100
C3216       C  0.58427503  0.61391777  0.98407497     0.24200
C3217       C  0.59761838  0.62593465  0.01587876    -0.23800
C3218       C  0.58313998  0.60730086  0.04445628     0.19100
F3219       F  0.59509186  0.61793676  0.07552616    -0.13800
F3220       F  0.54422008  0.55877221  0.06883602    -0.16100
F3221       F  0.59756418  0.63076245  0.95570525    -0.16100
F3222       F  0.54824266  0.57110014  0.94969701    -0.13800
C3223       C  0.93442309  0.91267005  0.02806761     0.24200
C3224       C  0.95164636  0.93137124  0.00077260    -0.23900
C3225       C  0.94411161  0.91888603  0.96808025     0.19100
C3226       C  0.91824490  0.88864467  0.96250416     0.24200
C3227       C  0.89967460  0.87049588  0.98963913    -0.23800
C3228       C  0.90865453  0.88234609  0.02262331     0.19100
F3229       F  0.89101580  0.86574834  0.04949984    -0.13800
F3230       F  0.94145719  0.92451616  0.05979141    -0.16100
F3231       F  0.91070679  0.87756704  0.93056764    -0.16100
F3232       F  0.96072786  0.93681584  0.94142552    -0.13800
C3233       C  0.88223176  0.46354943  0.98070845     0.24200
C3234       C  0.86890493  0.96490373  0.01192830    -0.23900
C3235       C  0.88676160  0.97065463  0.04119337     0.19100
C3236       C  0.91798496  0.97712031  0.03905365     0.24200
C3237       C  0.93187447  0.97818178  0.00768012    -0.23800
C3238       C  0.91357603  0.47049090  0.97864027     0.19100
F3239       F  0.92655827  0.47115791  0.94814087    -0.13800
F3240       F  0.86585721  0.45800050  0.95180441    -0.16100
F3241       F  0.93508126  0.98344648  0.06751809    -0.16100
F3242       F  0.87428730  0.97093307  0.07174748    -0.13800
C3243       C  0.58257319  0.02095751  0.03106220     0.24200
C3244       C  0.56432917  0.51694169  0.00272235    -0.23900
C3245       C  0.57755856  0.51984331  0.97056946     0.19100
C3246       C  0.60820193  0.52497304  0.96673202     0.24200
C3247       C  0.62628428  0.52818967  0.99509564    -0.23800
C3248       C  0.61349301  0.02702941  0.02733864     0.19100
F3249       F  0.62989505  0.02903579  0.05535644    -0.13800
F3250       F  0.56988137  0.01738915  0.06229016    -0.16100
F3251       F  0.61985933  0.52588940  0.93541121    -0.16100
F3252       F  0.56017037  0.51620512  0.94291361    -0.13800
C3253       C  0.81147695  0.58108477  0.35704924     0.24200
C3254       C  0.82451797  0.60239661  0.33038715    -0.23900
C3255       C  0.82860397  0.59143824  0.29899119     0.19100
C3256       C  0.81991824  0.55954110  0.29432881     0.24200
C3257       C  0.80660173  0.53794382  0.32095830    -0.23800
C3258       C  0.80227409  0.54909742  0.35238831     0.19100
F3259       F  0.79011175  0.52937023  0.37907571    -0.13800
F3260       F  0.80703730  0.59122309  0.38747429    -0.16100
F3261       F  0.82428497  0.54977385  0.26366578    -0.16100
F3262       F  0.83994633  0.61140514  0.27248726    -0.13800
C3263       C  0.85983081  0.77970340  0.31673346     0.24200
C3264       C  0.85950040  0.79378903  0.34782443    -0.23900
C3265       C  0.85036953  0.77499724  0.37686423     0.19100
C3266       C  0.84207131  0.74296654  0.37488215     0.24200
C3267       C  0.84207933  0.72900211  0.34378255    -0.23800
C3268       C  0.85077241  0.74753104  0.31475321     0.19100
F3269       F  0.85108794  0.73450533  0.28450184    -0.13800
F3270       F  0.86778213  0.79670621  0.28793598    -0.16100
F3271       F  0.83454971  0.72569692  0.40342630    -0.16100
F3272       F  0.84973548  0.78768788  0.40722367    -0.13800
C3273       C  0.76494323  0.59543893  0.29157800     0.24200
C3274       C  0.77186626  0.61129382  0.32281147    -0.23900
C3275       C  0.75232387  0.59608827  0.35049216     0.19100
C3276       C  0.72827956  0.56443771  0.34791594     0.24200
C3277       C  0.72310878  0.54761803  0.31746218    -0.23800
C3278       C  0.74057869  0.56374794  0.28888490     0.19100
F3279       F  0.73536249  0.54829940  0.25897832    -0.13800
F3280       F  0.78325056  0.60990487  0.26433355    -0.16100
F3281       F  0.71019067  0.55002172  0.37536136    -0.16100
F3282       F  0.75820464  0.61112581  0.38071730    -0.13800
C3283       C  0.93386529  0.76705441  0.32094150     0.24200
C3284       C  0.94184930  0.78434664  0.35127816    -0.23900
C3285       C  0.92810164  0.76834884  0.38139071     0.19100
C3286       C  0.90447387  0.73623821  0.38064689     0.24200
C3287       C  0.89463793  0.71990985  0.34984989    -0.23800
C3288       C  0.91058878  0.73508980  0.32029240     0.19100
F3289       F  0.90144902  0.71974778  0.29029621    -0.13800
F3290       F  0.94834032  0.78124815  0.29172083    -0.16100
F3291       F  0.88948456  0.72179884  0.40954483    -0.16100
F3292       F  0.93613328  0.78423193  0.41115905    -0.13800
C3293       C  0.76615205  0.68257077  0.35320729     0.24200
C3294       C  0.78056919  0.67563645  0.32642377    -0.23900
C3295       C  0.76997534  0.67444482  0.29362947     0.19100
C3296       C  0.74471258  0.67948694  0.28774904     0.24200
C3297       C  0.73021694  0.68663273  0.31460769    -0.23800
C3298       C  0.74163149  0.68859175  0.34739788     0.19100
F3299       F  0.72807733  0.69470599  0.37426564    -0.13800
F3300       F  0.77517715  0.68250375  0.38520884    -0.16100
F3301       F  0.73436891  0.67716738  0.25586064    -0.16100
F3302       F  0.78408459  0.66830342  0.26733744    -0.13800
C3303       C  0.91968181  0.64570582  0.38440508     0.24200
C3304       C  0.93652242  0.64397393  0.35627308    -0.22100
C3305       C  0.92765417  0.64803497  0.32403533     0.19100
C3306       C  0.90294082  0.65413582  0.32005987     0.24200
C3307       C  0.88601855  0.65552280  0.34799756    -0.23800
C3308       C  0.89434873  0.65111243  0.38021255     0.19100
F3309       F  0.87804643  0.65224671  0.40752551    -0.13800
F3310       F  0.92773589  0.64221001  0.41584573    -0.16100
F3311       F  0.89603463  0.65951676  0.28886224    -0.16100
F3312       F  0.94405478  0.64793402  0.29631157    -0.13800
loop_ 
_geom_bond_atom_site_label_1 
_geom_bond_atom_site_label_2 
_geom_bond_distance 
_geom_bond_site_symmetry_2 
_ccdc_geom_bond_type 
O1           Mg3   2.129       .  S
O1           Mg9   2.147       .  S
O1           C36   1.231       .  S
C2           O15   1.237       .  S
C2           O39   1.271       .  A
C2           H41   1.081       .  S
Mg3          O32   2.137       .  S
Mg3          O43   2.224   1_455  S
Mg3          O14   2.301       .  S
Mg3        O1703   2.284   1_455  S
O4          Mg46   2.135       .  S
O4          Mg29   2.136       .  S
O4           C25   1.236       .  S
O5           C36   1.264       .  A
O5          Mg29   2.287       .  S
C6            O8   1.272       .  A
C6           O20   1.271       .  A
C6           C51   1.470       .  S
O7           C35   1.273       .  A
O7           Mg9   2.316       .  S
O8          Mg40   2.267       .  S
Mg9          O15   2.143       .  S
Mg9          O11   2.265       .  S
Mg9        O1679   2.273   1_455  S
C10          O48   1.269       .  A
C10          O16   1.267       .  A
C10         C813   1.481       .  S
O11          C18   1.271       .  A
H12          C25   1.081       .  S
C13          O27   1.232       .  S
C13          O28   1.265       .  A
C13          H38   1.082       .  S
O14          C37   1.271       .  A
O15         Mg29   2.190       .  S
O16         Mg46   2.273       .  S
C17          O30   1.268       .  A
C17          O22   1.272       .  A
C17         C587   1.468       .  S
C18          O45   1.271       .  A
C18         C567   1.466       .  S
Mg19         O26   2.145       .  S
Mg19         O27   2.158       .  S
Mg19         O20   2.278       .  S
Mg19         O21   2.311       .  S
Mg19         O48   2.272       .  S
O21          C25   1.272       .  A
O22         Mg29   2.297       .  S
O23          C42   1.269       .  A
O23       Mg1665   2.273       .  S
O24          C44   1.271   1_455  A
O24         Mg40   2.294       .  S
O26         Mg40   2.181       .  S
O26          C37   1.237       .  S
O27         Mg46   2.146       .  S
O28         Mg40   2.293       .  S
Mg29         O45   2.260       .  S
O30         Mg46   2.240       .  S
H31          C36   1.082       .  S
O32         Mg40   2.151       .  S
O32          C35   1.238       .  S
H33          C35   1.082       .  S
H34          C37   1.081       .  S
O39         Mg46   2.298       .  S
C42          O47   1.270       .  A
C42         C820   1.480       .  S
O43          C44   1.266       .  A
C44        C1727   1.463       .  S
O47       Mg1659   2.284       .  S
C49         C937   1.465       .  S
C49          C50   1.389       .  A
C49          C54   1.416       .  A
C50          H69   1.086       .  S
C50          C51   1.393       .  A
C51          C52   1.420       .  A
C52          C53   1.418       .  A
C52          C59   1.405       .  A
C53          C54   1.418       .  A
C53          C58   1.424       .  A
C54          C55   1.406       .  A
C55         H893   1.083   1_545  S
C55          C56   1.394       .  A
C56          H66   1.083       .  S
C56          C57   1.406       .  A
C57          C58   1.420       .  A
C57          C64   1.414       .  A
C58          C61   1.421       .  A
C59          H67   1.083       .  S
C59          C60   1.398       .  A
C60          H68   1.082       .  S
C60          C61   1.409       .  A
C61          C62   1.423       .  A
C62         C264   1.487       .  S
C62          C63   1.401       .  A
C63          H70   1.085       .  S
C63          C64   1.402       .  A
C64         C216   1.474       .  S
H65         C883   1.083       .  S
C71        C1700   1.463       .  S
C71          C72   1.398       .  A
C71          C76   1.409       .  A
C72          H91   1.086       .  S
C72          C73   1.392       .  A
C73        C1012   1.469       .  S
C73          C74   1.414       .  A
C74          C75   1.419       .  A
C74          C81   1.406       .  A
C75          C76   1.418       .  A
C75          C80   1.417       .  A
C76          C77   1.405       .  A
C77        H1743   1.083       .  S
C77          C78   1.394       .  A
C78          H88   1.083       .  S
C78          C79   1.405       .  A
C79          C80   1.417       .  A
C79          C86   1.409       .  A
C80          C83   1.420       .  A
C81         H917   1.083       .  S
C81          C82   1.395       .  A
C82          H90   1.083       .  S
C82          C83   1.405       .  A
C83          C84   1.414       .  A
C84         C254   1.471       .  S
C84          C85   1.393       .  A
C85          H92   1.086       .  S
C85          C86   1.397       .  A
C86         C350   1.464       .  S
H87        C1733   1.083       .  S
H89         C909   1.083       .  S
O93         Mg95   2.166       .  S
O93        Mg101   2.132       .  S
O93         C128   1.233       .  S
C94         O107   1.235       .  S
C94         O131   1.270       .  A
C94         H133   1.081       .  S
Mg95        O124   2.138       .  S
Mg95        O135   2.235       .  S
Mg95        O106   2.306       .  S
Mg95       O1795   2.268   1_455  S
O96        Mg138   2.143       .  S
O96        Mg121   2.156       .  S
O96         C117   1.236       .  S
O97         C128   1.269       .  A
O97        Mg121   2.308       .  S
C98         O100   1.271       .  A
C98         O112   1.273       .  A
C98         C609   1.476       .  S
O99         C127   1.276       .  A
O99        Mg101   2.333       .  S
O100       Mg132   2.276       .  S
Mg101       O107   2.145       .  S
Mg101       O103   2.313   1_455  S
Mg101      O1771   2.264   1_455  S
C102        O140   1.268   1_545  A
C102        O108   1.266       .  A
C102        C793   1.474       .  S
O103        C110   1.274       .  A
H104        C117   1.082       .  S
C105        O119   1.232       .  S
C105        O120   1.268       .  A
C105        H130   1.081       .  S
O106        C129   1.270       .  A
O107       Mg121   2.167       .  S
O108       Mg966   2.281   1_545  S
C109        O114   1.273       .  A
C109        O950   1.267       .  A
C109        C877   1.465       .  S
C110        O137   1.271   1_655  A
C110       C1845   1.477       .  S
Mg111       O118   2.153       .  S
Mg111       O119   2.137       .  S
Mg111       O112   2.302       .  S
Mg111       O113   2.323       .  S
Mg111       O968   2.265       .  S
O113        C117   1.274       .  A
O114       Mg121   2.306       .  S
O115        C134   1.267       .  A
O115      Mg1757   2.264       .  S
O116        C136   1.273       .  A
O116       Mg132   2.315       .  S
O118       Mg132   2.172       .  S
O118        C129   1.235       .  S
O119       Mg138   2.168       .  S
O120       Mg132   2.309       .  S
Mg121       O137   2.276       .  S
O122        C937   1.267       .  A
O122       Mg966   2.230   1_545  S
H123        C128   1.081       .  S
O124       Mg132   2.158       .  S
O124        C127   1.238       .  S
H125        C127   1.082       .  S
H126        C129   1.081       .  S
O131       Mg138   2.301       .  S
C134        O139   1.263       .  A
C134        C800   1.474       .  S
O135        C136   1.266       .  A
C136        C565   1.469       .  S
Mg138       O936   2.281       .  S
Mg138       O950   2.230       .  S
O139      Mg1751   2.268       .  S
O140       Mg939   2.265       .  S
O141       Mg143   2.157       .  S
O141       Mg149   2.140       .  S
O141        C176   1.233       .  S
C142        O155   1.235       .  S
C142        O179   1.269       .  A
C142        H181   1.081       .  S
Mg143       O172   2.142       .  S
Mg143       O154   2.299       .  S
Mg143      O1015   2.279       .  S
Mg143      O1011   2.236       .  S
O144       Mg186   2.145       .  S
O144       Mg169   2.156       .  S
O144        C165   1.238       .  S
O145        C176   1.268       .  A
O145       Mg169   2.303       .  S
C146        O148   1.274       .  A
C146        O160   1.268       .  A
C146        C191   1.473       .  S
O147        C175   1.274       .  A
O147       Mg149   2.319       .  S
O148       Mg180   2.300       .  S
Mg149       O155   2.134       .  S
Mg149       O163   2.241       .  S
Mg149       O151   2.271       .  S
C150        O188   1.265       .  A
C150        O156   1.267       .  A
C150        C780   1.481       .  S
O151        C158   1.270       .  A
H152        C165   1.081       .  S
C153        O167   1.234       .  S
C153        O168   1.270       .  A
C153        H178   1.081       .  S
O154        C177   1.270       .  A
O155       Mg169   2.180       .  S
O156       Mg186   2.279       .  S
C157        O170   1.267       .  A
C157        O162   1.277       .  A
C157        C589   1.468       .  S
C158        O185   1.276       .  A
C158        C611   1.479       .  S
Mg159       O166   2.140       .  S
Mg159       O167   2.130       .  S
Mg159       O160   2.266       .  S
Mg159       O161   2.320       .  S
Mg159       O188   2.255       .  S
O161        C165   1.275       .  A
O162       Mg169   2.329       .  S
O163       C1010   1.265       .  A
O164        C184   1.277       .  A
O164       Mg180   2.327       .  S
O166       Mg180   2.165       .  S
O166        C177   1.235       .  S
O167       Mg186   2.156       .  S
O168       Mg180   2.309       .  S
Mg169       O185   2.312       .  S
O170       Mg186   2.227       .  S
H171        C176   1.081       .  S
O172       Mg180   2.153       .  S
O172        C175   1.238       .  S
H173        C175   1.082       .  S
H174        C177   1.082       .  S
O179       Mg186   2.295       .  S
C182        O187   1.268   1_545  A
C182        O991   1.265   1_545  A
C182        C773   1.480       .  S
O183       C1012   1.268       .  A
O183       Mg971   2.236   1_545  S
C184       O1011   1.268       .  A
C184        C901   1.469       .  S
O187       Mg971   2.279       .  S
C189       C1766   1.477       .  S
C189        C190   1.399       .  A
C189        C194   1.410       .  A
C190        H209   1.086       .  S
C190        C191   1.400       .  A
C191        C192   1.411       .  A
C192        C193   1.421       .  A
C192        C199   1.406       .  A
C193        C194   1.421       .  A
C193        C198   1.418       .  A
C194        C195   1.404       .  A
C195        H205   1.083       .  S
C195        C196   1.393       .  A
C196        H206   1.082       .  S
C196        C197   1.407       .  A
C197        C198   1.419       .  A
C197        C204   1.415       .  A
C198        C201   1.418       .  A
C199        H207   1.083       .  S
C199        C200   1.394       .  A
C200        H208   1.083       .  S
C200        C201   1.405       .  A
C201        C202   1.411       .  A
C202        C302   1.466       .  S
C202        C203   1.399       .  A
C203        H210   1.086       .  S
C203        C204   1.394       .  A
C204        C312   1.476       .  S
O211       Mg213   2.150   1_556  S
O211      Mg1047   2.116   1_545  S
O211        C246   1.238       .  S
C212        O225   1.231       .  S
C212        O249   1.265       .  A
C212        H251   1.081       .  S
Mg213      O1070   2.155   1_545  S
Mg213       O257   2.304   1_545  S
Mg213       O253   2.242       .  S
Mg213       O224   2.299       .  S
O214      Mg1084   2.160   1_545  S
O214      Mg1067   2.148   1_545  S
O214        C235   1.239       .  S
O215        C246   1.275       .  A
O215      Mg1067   2.328   1_545  S
C216        O218   1.272       .  A
C216        O230   1.264       .  A
O217        C245   1.276       .  A
O217       Mg219   2.318   1_554  S
O218       Mg250   2.314       .  S
Mg219       O225   2.141       .  S
Mg219      O1039   2.116       .  S
Mg219       O233   2.242       .  S
Mg219       O221   2.261       .  S
C220        O258   1.264   1_556  A
C220       O1054   1.271       .  A
C220        C763   1.474       .  S
O221        C228   1.264       .  A
H222        C235   1.082       .  S
C223        O237   1.237       .  S
C223        O238   1.275       .  A
C223        H248   1.081       .  S
O224        C247   1.267       .  A
O225       Mg239   2.145       .  S
O226       C1048   1.271       .  A
O226       Mg256   2.301       .  S
C227        O240   1.271       .  A
C227        O232   1.277       .  A
C227        C425   1.474       .  S
C228        O255   1.270       .  A
C228        C543   1.465       .  S
Mg229       O236   2.143       .  S
Mg229      O1065   2.123   1_545  S
Mg229       O230   2.270       .  S
Mg229       O231   2.312   1_554  S
Mg229       O258   2.224       .  S
O231        C235   1.274       .  A
O232       Mg239   2.336       .  S
O233        C252   1.265   1_556  A
O234        C254   1.277       .  A
O234       Mg250   2.333       .  S
O236       Mg250   2.142       .  S
O236        C247   1.232       .  S
O237       Mg256   2.154   1_554  S
O237      Mg1057   2.123       .  S
O238      Mg1078   2.326       .  S
Mg239      O1042   2.148       .  S
Mg239       O255   2.289       .  S
Mg239      O1043   2.328       .  S
O240       Mg256   2.249       .  S
H241        C246   1.081       .  S
O242      Mg1041   2.155       .  S
O242      Mg1078   2.159       .  S
O242        C245   1.240       .  S
H243        C245   1.081       .  S
H244        C247   1.081       .  S
O249       Mg256   2.294       .  S
Mg250      O1070   2.160   1_545  S
Mg250      O1066   2.326   1_545  S
C252       O1085   1.272       .  A
C252        C750   1.481       .  S
O253        C254   1.270       .  A
Mg256      O1042   2.160       .  S
O257       C1080   1.272       .  A
O259       Mg261   2.146   1_556  S
O259       Mg267   2.145       .  S
O259        C294   1.231       .  S
C260        O273   1.236       .  S
C260        O297   1.270       .  A
C260        H299   1.081       .  S
Mg261       O290   2.144       .  S
Mg261       O305   2.269       .  S
Mg261       O301   2.222       .  S
Mg261       O272   2.289       .  S
O262       Mg304   2.153       .  S
O262       Mg287   2.161       .  S
O262        C283   1.238   1_556  S
O263        C294   1.264       .  A
O263       Mg287   2.291       .  S
C264        O266   1.276       .  A
C264        O278   1.275       .  A
O265        C293   1.275       .  A
O265       Mg267   2.321       .  S
O266       Mg298   2.292       .  S
Mg267       O273   2.140       .  S
Mg267       O281   2.273       .  S
Mg267       O269   2.318       .  S
C268        O306   1.269       .  A
C268        O274   1.270   1_554  A
C268        C733   1.481       .  S
O269        C276   1.277       .  A
H270        C283   1.081       .  S
C271        O285   1.231       .  S
C271        O286   1.264       .  A
C271        H296   1.082   1_554  S
O272        C295   1.270       .  A
O273       Mg287   2.184       .  S
O274       Mg304   2.283       .  S
C275        O288   1.266       .  A
C275        O280   1.276       .  A
C275        C405   1.471       .  S
C276        O303   1.277       .  A
C276        C545   1.485       .  S
Mg277       O284   2.127       .  S
Mg277       O285   2.148       .  S
Mg277       O278   2.307       .  S
Mg277       O279   2.315       .  S
Mg277       O306   2.249       .  S
O279        C283   1.274       .  A
O280       Mg287   2.316       .  S
O281        C300   1.271       .  A
O282        C302   1.273       .  A
O282       Mg298   2.301       .  S
O284       Mg298   2.179       .  S
O284        C295   1.238       .  S
O285       Mg304   2.140   1_554  S
O286       Mg298   2.287       .  S
Mg287       O303   2.291       .  S
O288       Mg304   2.224       .  S
H289        C294   1.082   1_554  S
O290       Mg298   2.157       .  S
O290        C293   1.238   1_554  S
H291        C293   1.081       .  S
H292        C295   1.081       .  S
O297       Mg304   2.292       .  S
C300        O305   1.266   1_556  A
C300        C743   1.474       .  S
O301        C302   1.266       .  A
O307       Mg309   2.143   1_456  S
O307      Mg1971   2.144   1_455  S
O307        C342   1.230       .  S
C308        O321   1.237       .  S
C308        O345   1.270       .  A
C308        H347   1.081       .  S
Mg309      O1994   2.144       .  S
Mg309       O320   2.291   1_655  S
Mg309      O2009   2.275       .  S
Mg309      O2005   2.228       .  S
O310       Mg335   2.148       .  S
O310      Mg2008   2.146       .  S
O310        C331   1.237   1_556  S
O311        C342   1.264       .  A
O311       Mg335   2.289       .  S
C312        O314   1.273       .  A
C312        O326   1.274       .  A
O313        C341   1.274       .  A
O313       Mg315   2.320       .  S
O314       Mg346   2.271       .  S
Mg315       O321   2.139       .  S
Mg315      O1963   2.144       .  S
Mg315       O329   2.274       .  S
Mg315      O1973   2.302       .  S
C316        O354   1.269       .  A
C316        O322   1.268   1_554  A
C316        C720   1.477       .  S
O317        C324   1.276       .  A
O317      Mg1971   2.302   1_455  S
H318        C331   1.082       .  S
C319        O333   1.231       .  S
C319        O334   1.264       .  A
C319        H344   1.081   1_554  S
O320        C343   1.270       .  A
O321      Mg1991   2.188       .  S
O322      Mg2008   2.276       .  S
C323        O336   1.265       .  A
C323        O328   1.272       .  A
C323        C427   1.466       .  S
C324        O351   1.273       .  A
C324        C403   1.476       .  S
Mg325       O332   2.128       .  S
Mg325       O333   2.148       .  S
Mg325       O326   2.292       .  S
Mg325      O1983   2.311       .  S
Mg325      O2010   2.255       .  S
O327        C331   1.272       .  A
O327      Mg1981   2.311   1_455  S
O328       Mg335   2.300       .  S
O329        C348   1.271       .  A
O330        C350   1.271       .  A
O330       Mg346   2.292       .  S
O332       Mg346   2.181       .  S
O332       C1999   1.237       .  S
O333       Mg352   2.138   1_554  S
O334       Mg346   2.289       .  S
Mg335      O1977   2.188       .  S
Mg335       O351   2.269       .  S
O336      Mg2008   2.219       .  S
H337        C342   1.081   1_554  S
O338       Mg346   2.150       .  S
O338      Mg1965   2.144       .  S
O338        C341   1.238   1_554  S
H339        C341   1.082       .  S
H340        C343   1.081       .  S
C343       O1988   1.237   1_455  S
O345       Mg352   2.293       .  S
C348        O353   1.268   1_556  A
C348        C710   1.481       .  S
O349        C350   1.267       .  A
O349      Mg1965   2.228       .  S
Mg352      O1966   2.146       .  S
Mg352      O1978   2.276       .  S
Mg352      O1992   2.219       .  S
O353      Mg1965   2.275       .  S
O354      Mg1981   2.255   1_455  S
O355       Mg357   2.147       .  S
O355       Mg363   2.132       .  S
O355        C390   1.236       .  S
C356        O369   1.233       .  S
C356        O393   1.267       .  A
C356        H395   1.081       .  S
Mg357       O386   2.157       .  S
Mg357       O401   2.294       .  S
Mg357       O397   2.241       .  S
Mg357       O368   2.294       .  S
O358       Mg400   2.151       .  S
O358       Mg383   2.152       .  S
O358        C379   1.239       .  S
O359        C390   1.271       .  A
O359       Mg383   2.310       .  S
C360        O362   1.269       .  A
C360        O374   1.266       .  A
C360        C624   1.466       .  S
O361        C389   1.272       .  A
O361       Mg363   2.306       .  S
O362       Mg394   2.281       .  S
Mg363       O369   2.138       .  S
Mg363       O377   2.240       .  S
Mg363       O365   2.259       .  S
C364        O402   1.262       .  A
C364        O370   1.271       .  A
C364        C700   1.466       .  S
O365        C372   1.267       .  A
H366        C379   1.081       .  S
C367        O381   1.237       .  S
C367        O382   1.273       .  A
C367        H392   1.081       .  S
O368        C391   1.266       .  A
O369       Mg383   2.156       .  S
O370      Mg1228   2.302       .  S
C371        O384   1.271       .  A
C371       O1204   1.276       .  A
C371        C440   1.474       .  S
C372        O399   1.272       .  A
C372        C416   1.466       .  S
Mg373       O380   2.125       .  S
Mg373       O381   2.127       .  S
Mg373       O374   2.270       .  S
Mg373       O375   2.314       .  S
Mg373      O1230   2.212       .  S
O375        C379   1.274       .  A
O376       C1199   1.276   1_545  A
O376       Mg383   2.323       .  S
O377        C396   1.266       .  A
O378        C398   1.274       .  A
O378       Mg394   2.309       .  S
O380       Mg394   2.145       .  S
O380        C391   1.232       .  S
O381       Mg400   2.163       .  S
O382       Mg394   2.322       .  S
Mg383       O399   2.287       .  S
O384      Mg1228   2.258       .  S
H385        C390   1.081       .  S
O386       Mg394   2.144       .  S
O386        C389   1.238       .  S
H387        C389   1.081       .  S
H388        C391   1.082       .  S
O393       Mg400   2.296       .  S
C396        O401   1.272       .  A
C396        C690   1.480       .  S
O397        C398   1.270       .  A
C398        C602   1.467       .  S
Mg400      O1198   2.302   1_545  S
Mg400      O1212   2.258   1_545  S
O402      Mg1201   2.213       .  S
C403        C404   1.396       .  A
C403        C408   1.416       .  A
C404        H423   1.086       .  S
C404        C405   1.399       .  A
C405        C406   1.413       .  A
C406        C407   1.420       .  A
C406        C413   1.405       .  A
C407        C408   1.418       .  A
C407        C412   1.420       .  A
C408        C409   1.407       .  A
C409        H419   1.083       .  S
C409        C410   1.395       .  A
C410        H420   1.082       .  S
C410        C411   1.406       .  A
C411        C412   1.422       .  A
C411        C418   1.418       .  A
C412        C415   1.418       .  A
C413        H421   1.083       .  S
C413        C414   1.393       .  A
C414        H422   1.083       .  S
C414        C415   1.405       .  A
C415        C416   1.409       .  A
C416        C417   1.399       .  A
C417        H424   1.086       .  S
C417        C418   1.397       .  A
C418       C2120   1.482       .  S
C425        C426   1.396       .  A
C425        C430   1.415       .  A
C426        H445   1.086       .  S
C426        C427   1.400       .  A
C427        C428   1.409       .  A
C428        C429   1.418       .  A
C428        C435   1.405       .  A
C429        C430   1.419       .  A
C429        C434   1.417       .  A
C430        C431   1.406       .  A
C431        H441   1.083       .  S
C431        C432   1.397       .  A
C432        H442   1.083       .  S
C432        C433   1.406       .  A
C433        C434   1.419       .  A
C433        C440   1.415       .  A
C434        C437   1.418       .  A
C435        H443   1.083       .  S
C435        C436   1.391       .  A
C436       H2100   1.083       .  S
C436        C437   1.405       .  A
C437        C438   1.409       .  A
C438       C2167   1.464       .  S
C438        C439   1.400       .  A
C439        H446   1.086       .  S
C439        C440   1.395       .  A
H444       C2092   1.083       .  S
O447       Mg449   2.141       .  S
O447       Mg455   2.148       .  S
O447        C482   1.230       .  S
C448        O461   1.237       .  S
C448        O485   1.271       .  A
C448        H487   1.081       .  S
Mg449       O478   2.146       .  S
Mg449       O489   2.221       .  S
Mg449       O460   2.293       .  S
Mg449      O2149   2.272       .  S
O450       Mg492   2.145       .  S
O450       Mg475   2.153       .  S
O450        C471   1.237       .  S
O451        C482   1.264       .  A
O451       Mg475   2.288       .  S
C452        O454   1.276       .  A
C452        O466   1.275       .  A
C452        C622   1.482       .  S
O453        C481   1.274       .  A
O453       Mg455   2.322       .  S
O454       Mg486   2.285       .  S
Mg455       O461   2.138       .  S
Mg455      O2125   2.269       .  S
Mg455      O2113   2.318       .  S
C456        O494   1.271       .  A
C456        O462   1.269       .  A
C456        C670   1.485       .  S
O457       C2120   1.277       .  A
O457      Mg2111   2.318   1_455  S
H458        C471   1.081       .  S
C459        O473   1.231       .  S
C459        O474   1.264       .  A
C459        H484   1.082       .  S
O460        C483   1.271       .  A
O461       Mg475   2.183       .  S
O462      Mg1320   2.282       .  S
C463        O476   1.266       .  A
C463        O468   1.272   1_565  A
C463       C1386   1.468       .  S
C464        O491   1.274       .  A
C464       O2113   1.277       .  A
C464       C2074   1.482       .  S
Mg465       O472   2.140       .  S
Mg465       O473   2.147       .  S
Mg465       O466   2.305       .  S
Mg465       O467   2.313       .  S
Mg465      O1322   2.267   1_545  S
O467        C471   1.273       .  A
O468       Mg475   2.296       .  S
O469        C488   1.270       .  A
O469      Mg2111   2.269   1_455  S
O470        C490   1.274       .  A
O470       Mg486   2.306       .  S
O472       Mg486   2.182       .  S
O472        C483   1.237       .  S
O473       Mg492   2.142       .  S
O474       Mg486   2.289       .  S
Mg475       O491   2.270       .  S
O476       Mg492   2.229   1_565  S
H477        C482   1.082       .  S
O478       Mg486   2.159       .  S
O478        C481   1.238       .  S
H479        C481   1.081       .  S
H480        C483   1.081       .  S
O485       Mg492   2.294       .  S
C488        O493   1.267   1_455  A
C488        C680   1.472       .  S
O489        C490   1.266       .  A
C490        C578   1.469       .  S
Mg492      O1290   2.282   1_545  S
O493      Mg2105   2.272       .  S
O494      Mg1293   2.267       .  S
O495       Mg497   2.136       .  S
O495       Mg503   2.145       .  S
O495        C530   1.231       .  S
C496        O509   1.237       .  S
C496        O533   1.270       .  A
C496        H535   1.081       .  S
Mg497       O526   2.142       .  S
Mg497       O541   2.279       .  S
Mg497       O537   2.226       .  S
Mg497       O508   2.296       .  S
O498       Mg540   2.150       .  S
O498       Mg523   2.159       .  S
O498        C519   1.236       .  S
O499        C530   1.264       .  A
O499       Mg523   2.287       .  S
C500        O502   1.276       .  A
C500        O514   1.274       .  A
C500        C580   1.480       .  S
O501        C529   1.275       .  A
O501       Mg503   2.321       .  S
O502       Mg534   2.292       .  S
Mg503       O509   2.145       .  S
Mg503       O517   2.282       .  S
Mg503       O505   2.299       .  S
C504        O542   1.272       .  A
C504        O510   1.271       .  A
C504        C653   1.491       .  S
O505        C512   1.275       .  A
H506        C519   1.082       .  S
C507        O521   1.232       .  S
C507        O522   1.265       .  A
C507        H532   1.081       .  S
O508        C531   1.271       .  A
O509       Mg523   2.189       .  S
O510      Mg2196   2.290   1_455  S
C511        O524   1.265       .  A
C511        O516   1.273       .  A
C511       C2094   1.464       .  S
C512        O539   1.276       .  A
C512        C556   1.479       .  S
Mg513       O520   2.146       .  S
Mg513       O521   2.153       .  S
Mg513       O514   2.291       .  S
Mg513       O515   2.308       .  S
Mg513      O2198   2.277       .  S
O515        C519   1.271       .  A
O516       Mg523   2.302       .  S
O517        C536   1.271       .  A
O518        C538   1.275       .  A
O518       Mg534   2.316       .  S
O520       Mg534   2.183       .  S
O520        C531   1.237       .  S
O521       Mg540   2.136       .  S
O522       Mg534   2.291       .  S
Mg523       O539   2.285       .  S
O524       Mg540   2.212       .  S
H525        C530   1.081       .  S
O526       Mg534   2.161       .  S
O526        C529   1.238       .  S
H527        C529   1.082       .  S
H528        C531   1.081       .  S
O533       Mg540   2.294       .  S
C536        O541   1.269       .  A
C536        C663   1.479       .  S
O537        C538   1.266       .  A
C538        C600   1.469       .  S
Mg540      O2166   2.290       .  S
O542      Mg2169   2.277   1_455  S
C543        C544   1.399       .  A
C543        C548   1.408       .  A
C544        H563   1.086       .  S
C544        C545   1.398       .  A
C545        C546   1.422       .  A
C546        C547   1.422       .  A
C546        C553   1.407       .  A
C547        C548   1.418       .  A
C547        C552   1.420       .  A
C548        C549   1.406       .  A
C549        H559   1.083       .  S
C549        C550   1.390       .  A
C550        H560   1.083       .  S
C550        C551   1.403       .  A
C551        C552   1.419       .  A
C551        C558   1.409       .  A
C552        C555   1.420       .  A
C553        H561   1.082       .  S
C553        C554   1.397       .  A
C554        H562   1.082       .  S
C554        C555   1.407       .  A
C555        C556   1.419       .  A
C556        C557   1.396       .  A
C557        H564   1.086       .  S
C557        C558   1.398       .  A
C558       C1291   1.468       .  S
C565        C566   1.393       .  A
C565        C570   1.420       .  A
C566        H585   1.086       .  S
C566        C567   1.393       .  A
C567        C568   1.414       .  A
C568        C569   1.417       .  A
C568        C575   1.407       .  A
C569        C570   1.418       .  A
C569       C2230   1.421   1_455  A
C570        C571   1.407       .  A
C571        H581   1.083       .  S
C571       C2228   1.400   1_455  A
C572        H582   1.083       .  S
C572        C573   1.408       .  A
C572       C2227   1.400       .  A
C573        C574   1.420       .  A
C573        C580   1.421       .  A
C574        C577   1.419       .  A
C574       C2225   1.421       .  A
C575        H583   1.083       .  S
C575       C2232   1.392   1_455  A
C576        H584   1.083       .  S
C576        C577   1.404       .  A
C576       C2231   1.392       .  A
C577        C578   1.411       .  A
C578        C579   1.399       .  A
C579        H586   1.086       .  S
C579        C580   1.396       .  A
C587        C588   1.398       .  A
C587        C592   1.409       .  A
C588        H607   1.086       .  S
C588        C589   1.393       .  A
C589        C590   1.415       .  A
C590        C591   1.418       .  A
C590        C597   1.408       .  A
C591        C592   1.420       .  A
C591        C596   1.418       .  A
C592        C593   1.403       .  A
C593        H603   1.083       .  S
C593        C594   1.392       .  A
C594        H604   1.083       .  S
C594        C595   1.407       .  A
C595        C596   1.417       .  A
C595        C602   1.410       .  A
C596        C599   1.420       .  A
C597        H605   1.083       .  S
C597        C598   1.397       .  A
C598        H606   1.083       .  S
C598        C599   1.404       .  A
C599        C600   1.414       .  A
C600        C601   1.399       .  A
C601        H608   1.086       .  S
C601        C602   1.392       .  A
C609        C610   1.399       .  A
C609        C614   1.407       .  A
C610        H629   1.086       .  S
C610        C611   1.403       .  A
C611        C612   1.416       .  A
C612        C613   1.422       .  A
C612        C619   1.405       .  A
C613        C614   1.422       .  A
C613       C1446   1.420       .  A
C614        C615   1.403       .  A
C615        H625   1.083       .  S
C615       C1444   1.389       .  A
C616        H626   1.083       .  S
C616        C617   1.404       .  A
C616       C1443   1.389   1_545  A
C617        C618   1.419       .  A
C617        C624   1.407       .  A
C618        C621   1.421       .  A
C618       C1441   1.420   1_545  A
C619        H627   1.083       .  S
C619       C1448   1.399       .  A
C620        H628   1.082       .  S
C620        C621   1.409       .  A
C620       C1447   1.399   1_545  A
C621        C622   1.422       .  A
C622        C623   1.398       .  A
C623        H630   1.086       .  S
C623        C624   1.397       .  A
C631        C713   1.478   1_554  S
C631       C2288   1.411       .  A
C631       C1464   1.409   1_545  A
C632        C730   1.480       .  S
C632       C2287   1.411   1_455  A
C632       C1461   1.408       .  A
C633       C1588   1.480       .  S
C633       C1460   1.408       .  A
C633       C2290   1.407       .  A
C634       C2379   1.478       .  S
C634        C635   1.408       .  A
C634       C2289   1.407       .  A
C635        C740   1.477       .  S
C635        C636   1.409       .  A
C636        C753   1.484       .  S
C636       C1459   1.409       .  A
C637        C770   1.484       .  S
C637        C638   1.411       .  A
C637        C642   1.414       .  A
C638        C823   1.481       .  S
C638        C639   1.410       .  A
C639        C803   1.482       .  S
C639        C640   1.415       .  A
C640        C783   1.489       .  S
C640        C641   1.413       .  A
C641        C810   1.479       .  S
C641        C642   1.411       .  A
C642        C790   1.488       .  S
C643        C703   1.475       .  S
C643        C644   1.410       .  A
C643        C648   1.409       .  A
C644        C673   1.484       .  S
C644        C645   1.410       .  A
C645        C660   1.482       .  S
C645        C646   1.411       .  A
C646        C693   1.482       .  S
C646        C647   1.412       .  A
C647        C683   1.479       .  S
C647        C648   1.408       .  A
C648        C650   1.487       .  S
C649        C650   1.404       .  A
C649        C654   1.399       .  A
C649        F656   1.358       .  S
C650        C651   1.400       .  A
C651        C652   1.399       .  A
C651        F658   1.357       .  S
C652        C653   1.416       .  A
C652        F657   1.358       .  S
C653        C654   1.410       .  A
C654        F655   1.358       .  S
C659        C660   1.399       .  A
C659        C664   1.395       .  A
C659        F666   1.357       .  S
C660        C661   1.405       .  A
C661        C662   1.401       .  A
C661        F668   1.358       .  S
C662        C663   1.407       .  A
C662        F667   1.358       .  S
C663        C664   1.412       .  A
C664        F665   1.358       .  S
C669        C670   1.408       .  A
C669        C674   1.397       .  A
C669        F676   1.358       .  S
C670        C671   1.416       .  A
C671        C672   1.399       .  A
C671        F678   1.358       .  S
C672        C673   1.400       .  A
C672        F677   1.357       .  S
C673        C674   1.403       .  A
C674        F675   1.358       .  S
C679        C680   1.404       .  A
C679        C684   1.398       .  A
C679        F686   1.358       .  S
C680        C681   1.411       .  A
C681        C682   1.395       .  A
C681        F688   1.358       .  S
C682        C683   1.399       .  A
C682        F687   1.358       .  S
C683        C684   1.405       .  A
C684        F685   1.358       .  S
C689        C690   1.407       .  A
C689        C694   1.396       .  A
C689        F696   1.358       .  S
C690        C691   1.413       .  A
C691        C692   1.398       .  A
C691        F698   1.358       .  S
C692        C693   1.401       .  A
C692        F697   1.357       .  S
C693        C694   1.404       .  A
C694        F695   1.357       .  S
C699        C700   1.410       .  A
C699        C704   1.391       .  A
C699        F706   1.359       .  S
C700        C701   1.402       .  A
C701        C702   1.398       .  A
C701        F708   1.357       .  S
C702        C703   1.405       .  A
C702        F707   1.358       .  S
C703        C704   1.398       .  A
C704        F705   1.358       .  S
C709        C710   1.407       .  A
C709        C714   1.397       .  A
C709        F716   1.358       .  S
C710       C2367   1.414   1_556  A
C711        C712   1.396       .  A
C711       C2366   1.414   1_554  A
C711        F718   1.358       .  S
C712       C2369   1.398   1_554  A
C712        F717   1.357       .  S
C713        C714   1.404       .  A
C713       C2368   1.398   1_556  A
C714        F715   1.358       .  S
C719        C720   1.413   1_556  A
C719        C724   1.395       .  A
C719        F726   1.358       .  S
C720       C2377   1.407       .  A
C721        C722   1.397       .  A
C721       C2376   1.407       .  A
C721        F728   1.358       .  S
C722       C2379   1.403       .  A
C722        F727   1.358       .  S
C723       C2290   1.478       .  S
C723        C724   1.399   1_554  A
C723       C2378   1.403       .  A
C724        F725   1.357       .  S
C729        C730   1.403       .  A
C729        C734   1.397       .  A
C729        F736   1.358       .  S
C730        C731   1.400   1_554  A
C731        C732   1.396       .  A
C731        F738   1.356       .  S
C732        C733   1.413   1_556  A
C732        F737   1.358       .  S
C733        C734   1.409       .  A
C734        F735   1.358       .  S
C739        C740   1.399       .  A
C739        C744   1.396       .  A
C739        F746   1.358       .  S
C740        C741   1.404   1_554  A
C741        C742   1.396       .  A
C741        F748   1.357       .  S
C742        C743   1.404       .  A
C742        F747   1.358       .  S
C743        C744   1.413   1_556  A
C744        F745   1.358       .  S
C749        C754   1.398       .  A
C749       C1578   1.413   1_556  A
C749        F756   1.358       .  S
C750        C751   1.407       .  A
C750       C1577   1.413   1_554  A
C751        C752   1.399       .  A
C751        F758   1.358       .  S
C752        C753   1.404       .  A
C752        F757   1.358       .  S
C753       C1582   1.400   1_554  A
C754       C1581   1.400   1_556  A
C754        F755   1.357       .  S
C759        C764   1.395       .  A
C759       C1588   1.399       .  A
C759        F766   1.357       .  S
C760       C1461   1.480       .  S
C760        C761   1.405   1_554  A
C760       C1587   1.399       .  A
C761        C762   1.398       .  A
C761        F768   1.357       .  S
C762        C763   1.404       .  A
C762        F767   1.358       .  S
C763       C1592   1.412   1_556  A
C764       C1591   1.412   1_554  A
C764        F765   1.359       .  S
C769        C770   1.400       .  A
C769        C774   1.395       .  A
C769        F776   1.358       .  S
C770        C771   1.404       .  A
C771        C772   1.397       .  A
C771        F778   1.356       .  S
C772        C773   1.407       .  A
C772        F777   1.358       .  S
C773        C774   1.413       .  A
C774        F775   1.358       .  S
C779        C780   1.411       .  A
C779        C784   1.397       .  A
C779        F786   1.358       .  S
C780        C781   1.407       .  A
C781        C782   1.400       .  A
C781        F788   1.358       .  S
C782        C783   1.405       .  A
C782        F787   1.357       .  S
C783        C784   1.401       .  A
C784        F785   1.358       .  S
C789        C790   1.408       .  A
C789        C794   1.402       .  A
C789        F796   1.357       .  S
C790        C791   1.402       .  A
C791        C792   1.396       .  A
C791        F798   1.358       .  S
C792        C793   1.407       .  A
C792        F797   1.358       .  S
C793        C794   1.404       .  A
C794        F795   1.357       .  S
C799        C800   1.406       .  A
C799        C804   1.393       .  A
C799        F806   1.358       .  S
C800        C801   1.407       .  A
C801        C802   1.402       .  A
C801        F808   1.358       .  S
C802        C803   1.406       .  A
C802        F807   1.357       .  S
C803        C804   1.402       .  A
C804        F805   1.358       .  S
C809        C810   1.399       .  A
C809        C814   1.393       .  A
C809        F816   1.357       .  S
C810        C811   1.403       .  A
C811        C812   1.399       .  A
C811        F818   1.357       .  S
C812        C813   1.409       .  A
C812        F817   1.358       .  S
C813        C814   1.412       .  A
C814        F815   1.358       .  S
C819        C820   1.409       .  A
C819        C824   1.403       .  A
C819        F826   1.358       .  S
C820        C821   1.410       .  A
C821        C822   1.393       .  A
C821        F828   1.358       .  S
C822        C823   1.400       .  A
C822        F827   1.356       .  S
C823        C824   1.404       .  A
C824        F825   1.358       .  S
O829       Mg831   2.129       .  S
O829       Mg837   2.147       .  S
O829        C864   1.231       .  S
C830        O843   1.237       .  S
C830        O867   1.271       .  A
C830        H869   1.081       .  S
Mg831       O860   2.137       .  S
Mg831      O2531   2.283   1_455  S
Mg831       O871   2.224   1_455  S
Mg831       O842   2.301       .  S
O832       Mg874   2.135       .  S
O832       Mg857   2.136       .  S
O832        C853   1.236       .  S
O833        C864   1.264       .  A
O833       Mg857   2.287       .  S
C834        O836   1.272       .  A
C834        O848   1.271       .  A
C834        C879   1.470       .  S
O835        C863   1.273       .  A
O835       Mg837   2.316       .  S
O836       Mg868   2.267       .  S
Mg837       O843   2.142       .  S
Mg837      O2507   2.273   1_455  S
Mg837       O839   2.265       .  S
C838        O876   1.269       .  A
C838        O844   1.267       .  A
C838       C1641   1.481       .  S
O839        C846   1.271       .  A
H840        C853   1.081       .  S
C841        O855   1.232       .  S
C841        O856   1.265       .  A
C841        H866   1.082       .  S
O842        C865   1.271       .  A
O843       Mg857   2.190       .  S
O844       Mg874   2.273       .  S
C845        O858   1.268       .  A
C845        O850   1.272       .  A
C845       C1415   1.468       .  S
C846        O873   1.271       .  A
C846       C1395   1.466       .  S
Mg847       O854   2.145       .  S
Mg847       O855   2.158       .  S
Mg847       O848   2.278       .  S
Mg847       O849   2.311       .  S
Mg847       O876   2.273       .  S
O849        C853   1.272       .  A
O850       Mg857   2.297       .  S
O851        C870   1.269       .  A
O851      Mg2493   2.273       .  S
O852        C872   1.271   1_455  A
O852       Mg868   2.294       .  S
O854       Mg868   2.181       .  S
O854        C865   1.237       .  S
O855       Mg874   2.146       .  S
O856       Mg868   2.293       .  S
Mg857       O873   2.260       .  S
O858       Mg874   2.239       .  S
H859        C864   1.082       .  S
O860       Mg868   2.150       .  S
O860        C863   1.238       .  S
H861        C863   1.082       .  S
H862        C865   1.081       .  S
O867       Mg874   2.298       .  S
C870        O875   1.270       .  A
C870       C1648   1.480       .  S
O871        C872   1.266       .  A
C872       C2555   1.463       .  S
O875      Mg2487   2.283       .  S
C877        C878   1.389       .  A
C877        C882   1.416       .  A
C878        H897   1.086       .  S
C878        C879   1.393       .  A
C879        C880   1.420       .  A
C880        C881   1.418       .  A
C880        C887   1.405       .  A
C881        C882   1.418       .  A
C881        C886   1.424       .  A
C882        C883   1.406       .  A
C883        C884   1.394       .  A
C884        H894   1.083       .  S
C884        C885   1.406       .  A
C885        C886   1.420       .  A
C885        C892   1.414       .  A
C886        C889   1.421       .  A
C887        H895   1.083       .  S
C887        C888   1.398       .  A
C888        H896   1.082       .  S
C888        C889   1.409       .  A
C889        C890   1.423       .  A
C890       C1092   1.487       .  S
C890        C891   1.401       .  A
C891        H898   1.085       .  S
C891        C892   1.402       .  A
C892       C1044   1.474       .  S
C899       C2528   1.463       .  S
C899        C900   1.398       .  A
C899        C904   1.409       .  A
C900        H919   1.086       .  S
C900        C901   1.392       .  A
C901        C902   1.414       .  A
C902        C903   1.419       .  A
C902        C909   1.406       .  A
C903        C904   1.418       .  A
C903        C908   1.417       .  A
C904        C905   1.405       .  A
C905       H2571   1.083       .  S
C905        C906   1.394       .  A
C906        H916   1.083       .  S
C906        C907   1.405       .  A
C907        C908   1.417       .  A
C907        C914   1.409       .  A
C908        C911   1.419       .  A
C909        C910   1.395       .  A
C910        H918   1.083       .  S
C910        C911   1.405       .  A
C911        C912   1.414       .  A
C912       C1082   1.471       .  S
C912        C913   1.393       .  A
C913        H920   1.086       .  S
C913        C914   1.397       .  A
C914       C1178   1.464       .  S
H915       C2561   1.083       .  S
O921       Mg923   2.166       .  S
O921       Mg929   2.132       .  S
O921        C956   1.233       .  S
C922        O935   1.235       .  S
C922        O959   1.270       .  A
C922        H961   1.081       .  S
Mg923       O952   2.138       .  S
Mg923      O2623   2.268   1_455  S
Mg923       O963   2.235       .  S
Mg923       O934   2.306       .  S
O924       Mg966   2.143       .  S
O924       Mg949   2.156       .  S
O924        C945   1.236       .  S
O925        C956   1.269       .  A
O925       Mg949   2.308       .  S
C926        O928   1.271       .  A
C926        O940   1.273       .  A
C926       C1437   1.477       .  S
O927        C955   1.276       .  A
O927       Mg929   2.333       .  S
O928       Mg960   2.276       .  S
Mg929       O935   2.145       .  S
Mg929      O2599   2.264   1_455  S
Mg929       O931   2.313   1_455  S
C930        O968   1.268       .  A
C930        O936   1.266       .  A
C930       C1621   1.474       .  S
O931        C938   1.274       .  A
H932        C945   1.082       .  S
C933        O947   1.232       .  S
C933        O948   1.268       .  A
C933        H958   1.081       .  S
O934        C957   1.270       .  A
O935       Mg949   2.167       .  S
C937        O942   1.273   1_545  A
C938        O965   1.271   1_655  A
C938       C2673   1.477       .  S
Mg939       O946   2.153       .  S
Mg939       O947   2.137       .  S
Mg939       O940   2.302       .  S
Mg939       O941   2.323       .  S
O941        C945   1.274       .  A
O942       Mg949   2.306       .  S
O943        C962   1.267       .  A
O943      Mg2585   2.264       .  S
O944        C964   1.273       .  A
O944       Mg960   2.315       .  S
O946       Mg960   2.172       .  S
O946        C957   1.235       .  S
O947       Mg966   2.168       .  S
O948       Mg960   2.309       .  S
Mg949       O965   2.276       .  S
H951        C956   1.081       .  S
O952       Mg960   2.158       .  S
O952        C955   1.238       .  S
H953        C955   1.082       .  S
H954        C957   1.081       .  S
O959       Mg966   2.301       .  S
C962        O967   1.263       .  A
C962       C1628   1.474       .  S
O963        C964   1.266       .  A
C964       C1393   1.469       .  S
O967      Mg2579   2.268       .  S
O969       Mg971   2.158       .  S
O969       Mg977   2.140       .  S
O969       C1004   1.233       .  S
C970        O983   1.235       .  S
C970       O1007   1.269       .  A
C970       H1009   1.081       .  S
Mg971      O1000   2.142       .  S
Mg971       O982   2.299       .  S
O972      Mg1014   2.145       .  S
O972       Mg997   2.156       .  S
O972        C993   1.238       .  S
O973       C1004   1.268       .  A
O973       Mg997   2.303       .  S
C974        O976   1.274       .  A
C974        O988   1.268       .  A
C974       C1019   1.473       .  S
O975       C1003   1.274       .  A
O975       Mg977   2.319       .  S
O976      Mg1008   2.300       .  S
Mg977       O983   2.134       .  S
Mg977       O991   2.240       .  S
Mg977       O979   2.271       .  S
C978       O1016   1.265       .  A
C978        O984   1.267       .  A
C978       C1608   1.481       .  S
O979        C986   1.270       .  A
H980        C993   1.081       .  S
C981        O995   1.234       .  S
C981        O996   1.270       .  A
C981       H1006   1.081       .  S
O982       C1005   1.270       .  A
O983       Mg997   2.180       .  S
O984      Mg1014   2.279       .  S
C985        O998   1.267       .  A
C985        O990   1.277       .  A
C985       C1417   1.468       .  S
C986       O1013   1.276       .  A
C986       C1439   1.479       .  S
Mg987       O994   2.140       .  S
Mg987       O995   2.130       .  S
Mg987       O988   2.266       .  S
Mg987       O989   2.320       .  S
Mg987      O1016   2.255       .  S
O989        C993   1.275       .  A
O990       Mg997   2.329       .  S
O992       C1012   1.277   1_565  A
O992      Mg1008   2.327       .  S
O994      Mg1008   2.166       .  S
O994       C1005   1.235       .  S
O995      Mg1014   2.156       .  S
O996      Mg1008   2.309       .  S
Mg997      O1013   2.312       .  S
O998      Mg1014   2.227       .  S
H999       C1004   1.081       .  S
O1000     Mg1008   2.153       .  S
O1000      C1003   1.238       .  S
H1001      C1003   1.082       .  S
H1002      C1005   1.082       .  S
O1007     Mg1014   2.295       .  S
C1010      O1015   1.268       .  A
C1010      C1601   1.480       .  S
C1017      C2594   1.477       .  S
C1017      C1018   1.399       .  A
C1017      C1022   1.410       .  A
C1018      H1037   1.086       .  S
C1018      C1019   1.400       .  A
C1019      C1020   1.411       .  A
C1020      C1021   1.421       .  A
C1020      C1027   1.406       .  A
C1021      C1022   1.421       .  A
C1021      C1026   1.418       .  A
C1022      C1023   1.404       .  A
C1023      H1033   1.083       .  S
C1023      C1024   1.393       .  A
C1024      H1034   1.082       .  S
C1024      C1025   1.407       .  A
C1025      C1026   1.419       .  A
C1025      C1032   1.415       .  A
C1026      C1029   1.418       .  A
C1027      H1035   1.083       .  S
C1027      C1028   1.394       .  A
C1028      H1036   1.083       .  S
C1028      C1029   1.405       .  A
C1029      C1030   1.411       .  A
C1030      C1130   1.466       .  S
C1030      C1031   1.399       .  A
C1031      H1038   1.086       .  S
C1031      C1032   1.394       .  A
C1032      C1140   1.476       .  S
O1039     Mg1041   2.150   1_556  S
O1039      C1074   1.238       .  S
C1040      O1053   1.231       .  S
C1040      O1077   1.265       .  A
C1040      H1079   1.081       .  S
Mg1041     O1085   2.304       .  S
Mg1041     O1081   2.242       .  S
Mg1041     O1052   2.299       .  S
O1042      C1063   1.239       .  S
O1043      C1074   1.275       .  A
C1044      O1046   1.272       .  A
C1044      O1058   1.264       .  A
O1045      C1073   1.276       .  A
O1045     Mg1047   2.318   1_554  S
O1046     Mg1078   2.313       .  S
Mg1047     O1053   2.142       .  S
Mg1047     O1061   2.242       .  S
Mg1047     O1049   2.261       .  S
C1048      O1086   1.264   1_556  A
C1048      C1591   1.474       .  S
O1049      C1056   1.264       .  A
H1050      C1063   1.082       .  S
C1051      O1065   1.237       .  S
C1051      O1066   1.275       .  A
C1051      H1076   1.081       .  S
O1052      C1075   1.267       .  A
O1053     Mg1067   2.145       .  S
O1054     Mg1084   2.301   1_545  S
C1055      O1068   1.271       .  A
C1055      O1060   1.278       .  A
C1055      C1253   1.474       .  S
C1056      O1083   1.270       .  A
C1056      C1371   1.465       .  S
Mg1057     O1064   2.143       .  S
Mg1057     O1058   2.270       .  S
Mg1057     O1059   2.312   1_554  S
Mg1057     O1086   2.224       .  S
O1059      C1063   1.274       .  A
O1060     Mg1067   2.336       .  S
O1061      C1080   1.265   1_556  A
O1062      C1082   1.277       .  A
O1062     Mg1078   2.333       .  S
O1064     Mg1078   2.142       .  S
O1064      C1075   1.232       .  S
O1065     Mg1084   2.154   1_554  S
Mg1067     O1083   2.289       .  S
O1068     Mg1084   2.249       .  S
H1069      C1074   1.081       .  S
O1070      C1073   1.240       .  S
H1071      C1073   1.081       .  S
H1072      C1075   1.081       .  S
O1077     Mg1084   2.294       .  S
C1080      C1578   1.481       .  S
O1081      C1082   1.270       .  A
O1087     Mg1089   2.146   1_556  S
O1087     Mg1095   2.145       .  S
O1087      C1122   1.231       .  S
C1088      O1101   1.236       .  S
C1088      O1125   1.270       .  A
C1088      H1127   1.081       .  S
Mg1089     O1118   2.144       .  S
Mg1089     O1133   2.269       .  S
Mg1089     O1129   2.222       .  S
Mg1089     O1100   2.289       .  S
O1090     Mg1132   2.153       .  S
O1090     Mg1115   2.161       .  S
O1090      C1111   1.238   1_556  S
O1091      C1122   1.264       .  A
O1091     Mg1115   2.291       .  S
C1092      O1094   1.276       .  A
C1092      O1106   1.275       .  A
O1093      C1121   1.275       .  A
O1093     Mg1095   2.321       .  S
O1094     Mg1126   2.293       .  S
Mg1095     O1101   2.140       .  S
Mg1095     O1109   2.273       .  S
Mg1095     O1097   2.318       .  S
C1096      O1134   1.269       .  A
C1096      O1102   1.270   1_554  A
C1096      C1561   1.481       .  S
O1097      C1104   1.277       .  A
H1098      C1111   1.081       .  S
C1099      O1113   1.231       .  S
C1099      O1114   1.264       .  A
C1099      H1124   1.082   1_554  S
O1100      C1123   1.270       .  A
O1101     Mg1115   2.184       .  S
O1102     Mg1132   2.283       .  S
C1103      O1116   1.266       .  A
C1103      O1108   1.276       .  A
C1103      C1233   1.471       .  S
C1104      O1131   1.277       .  A
C1104      C1373   1.485       .  S
Mg1105     O1112   2.127       .  S
Mg1105     O1113   2.148       .  S
Mg1105     O1106   2.307       .  S
Mg1105     O1107   2.315       .  S
Mg1105     O1134   2.249       .  S
O1107      C1111   1.274       .  A
O1108     Mg1115   2.316       .  S
O1109      C1128   1.271       .  A
O1110      C1130   1.273       .  A
O1110     Mg1126   2.302       .  S
O1112     Mg1126   2.179       .  S
O1112      C1123   1.238       .  S
O1113     Mg1132   2.141   1_554  S
O1114     Mg1126   2.287       .  S
Mg1115     O1131   2.291       .  S
O1116     Mg1132   2.224       .  S
H1117      C1122   1.082   1_554  S
O1118     Mg1126   2.157       .  S
O1118      C1121   1.238   1_554  S
H1119      C1121   1.081       .  S
H1120      C1123   1.081       .  S
O1125     Mg1132   2.292       .  S
C1128      O1133   1.266   1_556  A
C1128      C1571   1.474       .  S
O1129      C1130   1.266       .  A
O1135     Mg1137   2.143   1_456  S
O1135     Mg2799   2.145   1_455  S
O1135      C1170   1.230       .  S
C1136      O1149   1.237       .  S
C1136      O1173   1.270       .  A
C1136      H1175   1.081       .  S
Mg1137     O2822   2.144       .  S
Mg1137     O2837   2.275       .  S
Mg1137     O2833   2.228       .  S
Mg1137     O1148   2.291   1_655  S
O1138     Mg2836   2.146       .  S
O1138     Mg1163   2.148       .  S
O1138      C1159   1.237   1_556  S
O1139      C1170   1.264       .  A
O1139     Mg1163   2.289       .  S
C1140      O1142   1.273       .  A
C1140      O1154   1.274       .  A
O1141      C1169   1.274       .  A
O1141     Mg1143   2.320       .  S
O1142     Mg1174   2.271       .  S
Mg1143     O2791   2.145       .  S
Mg1143     O1149   2.140       .  S
Mg1143     O1157   2.274       .  S
Mg1143     O2801   2.303       .  S
C1144      O1182   1.269       .  A
C1144      O1150   1.268   1_554  A
C1144      C1548   1.477       .  S
O1145      C1152   1.276       .  A
O1145     Mg2799   2.303   1_455  S
H1146      C1159   1.082       .  S
C1147      O1161   1.231       .  S
C1147      O1162   1.264       .  A
C1147      H1172   1.081   1_554  S
O1148      C1171   1.270       .  A
O1149     Mg2819   2.188       .  S
O1150     Mg2836   2.276       .  S
C1151      O1164   1.265       .  A
C1151      O1156   1.272       .  A
C1151      C1255   1.466       .  S
C1152      O1179   1.273       .  A
C1152      C1231   1.477       .  S
Mg1153     O1160   2.128       .  S
Mg1153     O1161   2.148       .  S
Mg1153     O1154   2.292       .  S
Mg1153     O2811   2.311       .  S
Mg1153     O2838   2.255       .  S
O1155      C1159   1.272       .  A
O1155     Mg2809   2.311   1_455  S
O1156     Mg1163   2.300       .  S
O1157      C1176   1.271       .  A
O1158      C1178   1.271       .  A
O1158     Mg1174   2.292       .  S
O1160     Mg1174   2.181       .  S
O1160      C2827   1.237       .  S
O1161     Mg1180   2.138   1_554  S
O1162     Mg1174   2.289       .  S
Mg1163     O2805   2.188       .  S
Mg1163     O1179   2.269       .  S
O1164     Mg2836   2.219       .  S
H1165      C1170   1.081   1_554  S
O1166     Mg2793   2.144       .  S
O1166     Mg1174   2.150       .  S
O1166      C1169   1.238   1_554  S
H1167      C1169   1.082       .  S
H1168      C1171   1.081       .  S
C1171      O2816   1.237   1_455  S
O1173     Mg1180   2.293       .  S
C1176      O1181   1.268   1_556  A
C1176      C1538   1.481       .  S
O1177      C1178   1.267       .  A
O1177     Mg2793   2.228       .  S
Mg1180     O2794   2.146       .  S
Mg1180     O2806   2.276       .  S
Mg1180     O2820   2.219       .  S
O1181     Mg2793   2.275       .  S
O1182     Mg2809   2.255   1_455  S
O1183     Mg1185   2.147       .  S
O1183     Mg1191   2.132       .  S
O1183      C1218   1.236       .  S
C1184      O1197   1.233       .  S
C1184      O1221   1.267       .  A
C1184      H1223   1.081       .  S
Mg1185     O1214   2.157       .  S
Mg1185     O1229   2.294       .  S
Mg1185     O1225   2.241       .  S
Mg1185     O1196   2.293       .  S
O1186     Mg1228   2.151       .  S
O1186     Mg1211   2.152       .  S
O1186      C1207   1.239       .  S
O1187      C1218   1.271       .  A
O1187     Mg1211   2.310       .  S
C1188      O1190   1.269       .  A
C1188      O1202   1.266       .  A
C1188      C1452   1.466       .  S
O1189      C1217   1.272       .  A
O1189     Mg1191   2.306       .  S
O1190     Mg1222   2.281       .  S
Mg1191     O1197   2.138       .  S
Mg1191     O1205   2.240       .  S
Mg1191     O1193   2.259       .  S
C1192      O1230   1.262   1_565  A
C1192      O1198   1.271       .  A
C1192      C1528   1.466       .  S
O1193      C1200   1.267       .  A
H1194      C1207   1.081       .  S
C1195      O1209   1.237       .  S
C1195      O1210   1.273       .  A
C1195      H1220   1.081       .  S
O1196      C1219   1.266       .  A
O1197     Mg1211   2.156       .  S
C1199      O1212   1.271       .  A
C1199      C1268   1.474       .  S
C1200      O1227   1.272       .  A
C1200      C1244   1.466       .  S
Mg1201     O1208   2.125       .  S
Mg1201     O1209   2.127       .  S
Mg1201     O1202   2.270       .  S
Mg1201     O1203   2.314       .  S
O1203      C1207   1.274       .  A
O1204     Mg1211   2.323       .  S
O1205      C1224   1.266       .  A
O1206      C1226   1.274       .  A
O1206     Mg1222   2.309       .  S
O1208     Mg1222   2.145       .  S
O1208      C1219   1.232       .  S
O1209     Mg1228   2.163       .  S
O1210     Mg1222   2.322       .  S
Mg1211     O1227   2.287       .  S
H1213      C1218   1.081       .  S
O1214     Mg1222   2.144       .  S
O1214      C1217   1.238       .  S
H1215      C1217   1.081       .  S
H1216      C1219   1.082       .  S
O1221     Mg1228   2.297       .  S
C1224      O1229   1.272       .  A
C1224      C1518   1.480       .  S
O1225      C1226   1.270       .  A
C1226      C1430   1.467       .  S
C1231      C1232   1.396       .  A
C1231      C1236   1.416       .  A
C1232      H1251   1.086       .  S
C1232      C1233   1.399       .  A
C1233      C1234   1.413       .  A
C1234      C1235   1.420       .  A
C1234      C1241   1.405       .  A
C1235      C1236   1.418       .  A
C1235      C1240   1.420       .  A
C1236      C1237   1.407       .  A
C1237      H1247   1.083       .  S
C1237      C1238   1.395       .  A
C1238      H1248   1.082       .  S
C1238      C1239   1.406       .  A
C1239      C1240   1.422       .  A
C1239      C1246   1.418       .  A
C1240      C1243   1.418       .  A
C1241      H1249   1.083       .  S
C1241      C1242   1.393       .  A
C1242      H1250   1.083       .  S
C1242      C1243   1.405       .  A
C1243      C1244   1.409       .  A
C1244      C1245   1.399       .  A
C1245      H1252   1.086       .  S
C1245      C1246   1.397       .  A
C1246      C2948   1.482       .  S
C1253      C1254   1.396       .  A
C1253      C1258   1.415       .  A
C1254      H1273   1.086       .  S
C1254      C1255   1.400       .  A
C1255      C1256   1.409       .  A
C1256      C1257   1.418       .  A
C1256      C1263   1.405       .  A
C1257      C1258   1.419       .  A
C1257      C1262   1.418       .  A
C1258      C1259   1.406       .  A
C1259      H1269   1.083       .  S
C1259      C1260   1.397       .  A
C1260      H1270   1.083       .  S
C1260      C1261   1.406       .  A
C1261      C1262   1.419       .  A
C1261      C1268   1.415       .  A
C1262      C1265   1.418       .  A
C1263      H1271   1.083       .  S
C1263      C1264   1.391       .  A
C1264      H2928   1.083       .  S
C1264      C1265   1.405       .  A
C1265      C1266   1.409       .  A
C1266      C2995   1.464       .  S
C1266      C1267   1.400       .  A
C1267      H1274   1.086       .  S
C1267      C1268   1.395       .  A
H1272      C2920   1.083       .  S
O1275     Mg1277   2.141       .  S
O1275     Mg1283   2.148       .  S
O1275      C1310   1.230       .  S
C1276      O1289   1.237       .  S
C1276      O1313   1.271       .  A
C1276      H1315   1.081       .  S
Mg1277     O1306   2.146       .  S
Mg1277     O2977   2.272       .  S
Mg1277     O1317   2.221       .  S
Mg1277     O1288   2.293       .  S
O1278     Mg1320   2.145       .  S
O1278     Mg1303   2.153       .  S
O1278      C1299   1.237       .  S
O1279      C1310   1.264       .  A
O1279     Mg1303   2.288       .  S
C1280      O1282   1.276       .  A
C1280      O1294   1.275       .  A
C1280      C1450   1.482       .  S
O1281      C1309   1.274       .  A
O1281     Mg1283   2.322       .  S
O1282     Mg1314   2.285       .  S
Mg1283     O1289   2.138       .  S
Mg1283     O2953   2.269       .  S
Mg1283     O2941   2.318       .  S
C1284      O1322   1.271       .  A
C1284      O1290   1.269       .  A
C1284      C1498   1.485       .  S
O1285      C2948   1.277       .  A
O1285     Mg2939   2.318   1_455  S
H1286      C1299   1.081       .  S
C1287      O1301   1.231       .  S
C1287      O1302   1.264       .  A
C1287      H1312   1.082       .  S
O1288      C1311   1.271       .  A
O1289     Mg1303   2.183       .  S
C1291      O1304   1.266       .  A
C1291      O1296   1.272       .  A
C1292      O2941   1.277       .  A
C1292      O1319   1.274       .  A
C1292      C2902   1.482       .  S
Mg1293     O1300   2.140       .  S
Mg1293     O1301   2.147       .  S
Mg1293     O1294   2.305       .  S
Mg1293     O1295   2.313       .  S
O1295      C1299   1.273       .  A
O1296     Mg1303   2.296       .  S
O1297      C1316   1.270       .  A
O1297     Mg2939   2.269   1_455  S
O1298      C1318   1.274       .  A
O1298     Mg1314   2.306       .  S
O1300     Mg1314   2.182       .  S
O1300      C1311   1.237       .  S
O1301     Mg1320   2.142       .  S
O1302     Mg1314   2.289       .  S
Mg1303     O1319   2.270       .  S
O1304     Mg1320   2.229       .  S
H1305      C1310   1.082       .  S
O1306     Mg1314   2.159       .  S
O1306      C1309   1.238       .  S
H1307      C1309   1.081       .  S
H1308      C1311   1.081       .  S
O1313     Mg1320   2.294       .  S
C1316      O1321   1.267   1_455  A
C1316      C1508   1.472       .  S
O1317      C1318   1.266       .  A
C1318      C1406   1.469       .  S
O1321     Mg2933   2.272       .  S
O1323     Mg1325   2.136       .  S
O1323     Mg1331   2.145       .  S
O1323      C1358   1.231       .  S
C1324      O1337   1.237       .  S
C1324      O1361   1.270       .  A
C1324      H1363   1.081       .  S
Mg1325     O1354   2.142       .  S
Mg1325     O1369   2.279       .  S
Mg1325     O1365   2.226       .  S
Mg1325     O1336   2.296       .  S
O1326     Mg1368   2.150       .  S
O1326     Mg1351   2.159       .  S
O1326      C1347   1.236       .  S
O1327      C1358   1.264       .  A
O1327     Mg1351   2.287       .  S
C1328      O1330   1.276       .  A
C1328      O1342   1.274       .  A
C1328      C1408   1.480       .  S
O1329      C1357   1.275       .  A
O1329     Mg1331   2.321       .  S
O1330     Mg1362   2.291       .  S
Mg1331     O1337   2.145       .  S
Mg1331     O1345   2.282       .  S
Mg1331     O1333   2.299       .  S
C1332      O1370   1.272       .  A
C1332      O1338   1.271       .  A
C1332      C1481   1.491       .  S
O1333      C1340   1.275       .  A
H1334      C1347   1.082       .  S
C1335      O1349   1.232       .  S
C1335      O1350   1.265       .  A
C1335      H1360   1.081       .  S
O1336      C1359   1.271       .  A
O1337     Mg1351   2.189       .  S
O1338     Mg3024   2.290   1_455  S
C1339      O1352   1.265       .  A
C1339      O1344   1.274       .  A
C1339      C2922   1.464       .  S
C1340      O1367   1.276       .  A
C1340      C1384   1.479       .  S
Mg1341     O1348   2.146       .  S
Mg1341     O1349   2.153       .  S
Mg1341     O1342   2.291       .  S
Mg1341     O1343   2.309       .  S
Mg1341     O3026   2.277       .  S
O1343      C1347   1.271       .  A
O1344     Mg1351   2.303       .  S
O1345      C1364   1.271       .  A
O1346      C1366   1.275       .  A
O1346     Mg1362   2.316       .  S
O1348     Mg1362   2.183       .  S
O1348      C1359   1.237       .  S
O1349     Mg1368   2.136       .  S
O1350     Mg1362   2.291       .  S
Mg1351     O1367   2.285       .  S
O1352     Mg1368   2.212       .  S
H1353      C1358   1.081       .  S
O1354     Mg1362   2.161       .  S
O1354      C1357   1.238       .  S
H1355      C1357   1.082       .  S
H1356      C1359   1.081       .  S
O1361     Mg1368   2.294       .  S
C1364      O1369   1.269       .  A
C1364      C1491   1.479       .  S
O1365      C1366   1.266       .  A
C1366      C1428   1.469       .  S
Mg1368     O2994   2.290       .  S
O1370     Mg2997   2.277   1_455  S
C1371      C1372   1.399       .  A
C1371      C1376   1.408       .  A
C1372      H1391   1.086       .  S
C1372      C1373   1.398       .  A
C1373      C1374   1.422       .  A
C1374      C1375   1.422       .  A
C1374      C1381   1.407       .  A
C1375      C1376   1.418       .  A
C1375      C1380   1.420       .  A
C1376      C1377   1.406       .  A
C1377      H1387   1.083       .  S
C1377      C1378   1.390       .  A
C1378      H1388   1.083       .  S
C1378      C1379   1.403       .  A
C1379      C1380   1.419       .  A
C1379      C1386   1.409       .  A
C1380      C1383   1.420       .  A
C1381      H1389   1.082       .  S
C1381      C1382   1.397       .  A
C1382      H1390   1.082       .  S
C1382      C1383   1.407       .  A
C1383      C1384   1.419       .  A
C1384      C1385   1.396       .  A
C1385      H1392   1.086       .  S
C1385      C1386   1.398       .  A
C1393      C1394   1.393       .  A
C1393      C1398   1.420       .  A
C1394      H1413   1.086       .  S
C1394      C1395   1.393       .  A
C1395      C1396   1.414       .  A
C1396      C1397   1.417       .  A
C1396      C1403   1.407       .  A
C1397      C1398   1.418       .  A
C1397      C3058   1.421   1_455  A
C1398      C1399   1.407       .  A
C1399      H1409   1.083       .  S
C1399      C3056   1.399   1_455  A
C1400      H1410   1.083       .  S
C1400      C3055   1.399       .  A
C1400      C1401   1.408       .  A
C1401      C1402   1.420       .  A
C1401      C1408   1.421       .  A
C1402      C3053   1.421       .  A
C1402      C1405   1.419       .  A
C1403      H1411   1.083       .  S
C1403      C3060   1.392   1_455  A
C1404      H1412   1.083       .  S
C1404      C3059   1.392       .  A
C1404      C1405   1.404       .  A
C1405      C1406   1.411       .  A
C1406      C1407   1.399       .  A
C1407      H1414   1.086       .  S
C1407      C1408   1.396       .  A
C1415      C1416   1.398       .  A
C1415      C1420   1.409       .  A
C1416      H1435   1.086       .  S
C1416      C1417   1.393       .  A
C1417      C1418   1.415       .  A
C1418      C1419   1.418       .  A
C1418      C1425   1.408       .  A
C1419      C1420   1.420       .  A
C1419      C1424   1.418       .  A
C1420      C1421   1.403       .  A
C1421      H1431   1.083       .  S
C1421      C1422   1.392       .  A
C1422      H1432   1.083       .  S
C1422      C1423   1.407       .  A
C1423      C1424   1.417       .  A
C1423      C1430   1.410       .  A
C1424      C1427   1.420       .  A
C1425      H1433   1.083       .  S
C1425      C1426   1.397       .  A
C1426      H1434   1.083       .  S
C1426      C1427   1.404       .  A
C1427      C1428   1.414       .  A
C1428      C1429   1.399       .  A
C1429      H1436   1.086       .  S
C1429      C1430   1.392       .  A
C1437      C1438   1.399       .  A
C1437      C1442   1.407       .  A
C1438      H1457   1.086       .  S
C1438      C1439   1.403       .  A
C1439      C1440   1.416       .  A
C1440      C1441   1.422       .  A
C1440      C1447   1.405       .  A
C1441      C1442   1.422       .  A
C1442      C1443   1.403       .  A
C1443      H1453   1.083       .  S
C1444      H1454   1.083       .  S
C1444      C1445   1.404       .  A
C1445      C1446   1.419       .  A
C1445      C1452   1.407       .  A
C1446      C1449   1.421       .  A
C1447      H1455   1.083       .  S
C1448      H1456   1.082       .  S
C1448      C1449   1.409       .  A
C1449      C1450   1.422       .  A
C1450      C1451   1.398       .  A
C1451      H1458   1.086       .  S
C1451      C1452   1.397       .  A
C1459      C1541   1.478   1_554  S
C1459      C3116   1.411       .  A
C1460      C1558   1.480       .  S
C1460      C3115   1.411   1_455  A
C1461      C3118   1.407   1_545  A
C1462      C3207   1.478       .  S
C1462      C3117   1.407   1_565  A
C1462      C1463   1.408       .  A
C1463      C1568   1.477       .  S
C1463      C1464   1.409       .  A
C1464      C1581   1.484       .  S
C1465      C1598   1.484       .  S
C1465      C1466   1.411       .  A
C1465      C1470   1.414       .  A
C1466      C1651   1.481       .  S
C1466      C1467   1.410       .  A
C1467      C1631   1.483       .  S
C1467      C1468   1.415       .  A
C1468      C1611   1.489       .  S
C1468      C1469   1.413       .  A
C1469      C1638   1.479       .  S
C1469      C1470   1.411       .  A
C1470      C1618   1.488       .  S
C1471      C1531   1.475       .  S
C1471      C1472   1.410       .  A
C1471      C1476   1.408       .  A
C1472      C1501   1.484       .  S
C1472      C1473   1.410       .  A
C1473      C1488   1.482       .  S
C1473      C1474   1.411       .  A
C1474      C1521   1.482       .  S
C1474      C1475   1.412       .  A
C1475      C1511   1.479       .  S
C1475      C1476   1.408       .  A
C1476      C1478   1.487       .  S
C1477      C1478   1.404       .  A
C1477      C1482   1.399       .  A
C1477      F1484   1.358       .  S
C1478      C1479   1.400       .  A
C1479      C1480   1.399       .  A
C1479      F1486   1.357       .  S
C1480      C1481   1.416       .  A
C1480      F1485   1.358       .  S
C1481      C1482   1.410       .  A
C1482      F1483   1.358       .  S
C1487      C1488   1.399       .  A
C1487      C1492   1.395       .  A
C1487      F1494   1.357       .  S
C1488      C1489   1.405       .  A
C1489      C1490   1.401       .  A
C1489      F1496   1.358       .  S
C1490      C1491   1.407       .  A
C1490      F1495   1.358       .  S
C1491      C1492   1.412       .  A
C1492      F1493   1.358       .  S
C1497      C1498   1.408       .  A
C1497      C1502   1.397       .  A
C1497      F1504   1.358       .  S
C1498      C1499   1.416       .  A
C1499      C1500   1.399       .  A
C1499      F1506   1.358       .  S
C1500      C1501   1.400       .  A
C1500      F1505   1.357       .  S
C1501      C1502   1.403       .  A
C1502      F1503   1.358       .  S
C1507      C1508   1.404       .  A
C1507      C1512   1.398       .  A
C1507      F1514   1.358       .  S
C1508      C1509   1.411       .  A
C1509      C1510   1.394       .  A
C1509      F1516   1.358       .  S
C1510      C1511   1.399       .  A
C1510      F1515   1.358       .  S
C1511      C1512   1.405       .  A
C1512      F1513   1.358       .  S
C1517      C1518   1.407       .  A
C1517      C1522   1.396       .  A
C1517      F1524   1.358       .  S
C1518      C1519   1.413       .  A
C1519      C1520   1.398       .  A
C1519      F1526   1.358       .  S
C1520      C1521   1.401       .  A
C1520      F1525   1.357       .  S
C1521      C1522   1.404       .  A
C1522      F1523   1.357       .  S
C1527      C1528   1.410       .  A
C1527      C1532   1.391       .  A
C1527      F1534   1.359       .  S
C1528      C1529   1.402       .  A
C1529      C1530   1.398       .  A
C1529      F1536   1.357       .  S
C1530      C1531   1.405       .  A
C1530      F1535   1.358       .  S
C1531      C1532   1.398       .  A
C1532      F1533   1.358       .  S
C1537      C1538   1.407       .  A
C1537      C1542   1.397       .  A
C1537      F1544   1.358       .  S
C1538      C3195   1.414   1_556  A
C1539      C3194   1.414   1_554  A
C1539      C1540   1.396       .  A
C1539      F1546   1.358       .  S
C1540      C3197   1.398   1_554  A
C1540      F1545   1.357       .  S
C1541      C3196   1.398   1_556  A
C1541      C1542   1.404       .  A
C1542      F1543   1.358       .  S
C1547      C1548   1.413   1_556  A
C1547      C1552   1.395       .  A
C1547      F1554   1.358       .  S
C1548      C3205   1.407       .  A
C1549      C3204   1.407       .  A
C1549      C1550   1.397       .  A
C1549      F1556   1.358       .  S
C1550      C3207   1.403       .  A
C1550      F1555   1.358       .  S
C1551      C3118   1.478       .  S
C1551      C3206   1.403       .  A
C1551      C1552   1.399   1_554  A
C1552      F1553   1.357       .  S
C1557      C1558   1.403       .  A
C1557      C1562   1.397       .  A
C1557      F1564   1.358       .  S
C1558      C1559   1.400   1_554  A
C1559      C1560   1.396       .  A
C1559      F1566   1.356       .  S
C1560      C1561   1.413   1_556  A
C1560      F1565   1.358       .  S
C1561      C1562   1.409       .  A
C1562      F1563   1.358       .  S
C1567      C1568   1.399       .  A
C1567      C1572   1.396       .  A
C1567      F1574   1.358       .  S
C1568      C1569   1.404   1_554  A
C1569      C1570   1.396       .  A
C1569      F1576   1.357       .  S
C1570      C1571   1.404       .  A
C1570      F1575   1.358       .  S
C1571      C1572   1.413   1_556  A
C1572      F1573   1.358       .  S
C1577      C1582   1.398       .  A
C1577      F1584   1.358       .  S
C1578      C1579   1.407       .  A
C1579      C1580   1.399       .  A
C1579      F1586   1.358       .  S
C1580      C1581   1.404       .  A
C1580      F1585   1.358       .  S
C1582      F1583   1.357       .  S
C1587      C1592   1.395       .  A
C1587      F1594   1.357       .  S
C1588      C1589   1.405   1_554  A
C1589      C1590   1.398       .  A
C1589      F1596   1.357       .  S
C1590      C1591   1.404       .  A
C1590      F1595   1.358       .  S
C1592      F1593   1.359       .  S
C1597      C1598   1.400       .  A
C1597      C1602   1.395       .  A
C1597      F1604   1.358       .  S
C1598      C1599   1.404       .  A
C1599      C1600   1.397       .  A
C1599      F1606   1.356       .  S
C1600      C1601   1.407       .  A
C1600      F1605   1.358       .  S
C1601      C1602   1.413       .  A
C1602      F1603   1.358       .  S
C1607      C1608   1.411       .  A
C1607      C1612   1.397       .  A
C1607      F1614   1.358       .  S
C1608      C1609   1.407       .  A
C1609      C1610   1.400       .  A
C1609      F1616   1.358       .  S
C1610      C1611   1.405       .  A
C1610      F1615   1.357       .  S
C1611      C1612   1.401       .  A
C1612      F1613   1.358       .  S
C1617      C1618   1.408       .  A
C1617      C1622   1.402       .  A
C1617      F1624   1.357       .  S
C1618      C1619   1.402       .  A
C1619      C1620   1.396       .  A
C1619      F1626   1.358       .  S
C1620      C1621   1.407       .  A
C1620      F1625   1.358       .  S
C1621      C1622   1.404       .  A
C1622      F1623   1.357       .  S
C1627      C1628   1.406       .  A
C1627      C1632   1.393       .  A
C1627      F1634   1.358       .  S
C1628      C1629   1.407       .  A
C1629      C1630   1.402       .  A
C1629      F1636   1.358       .  S
C1630      C1631   1.406       .  A
C1630      F1635   1.357       .  S
C1631      C1632   1.402       .  A
C1632      F1633   1.358       .  S
C1637      C1638   1.399       .  A
C1637      C1642   1.393       .  A
C1637      F1644   1.357       .  S
C1638      C1639   1.403       .  A
C1639      C1640   1.399       .  A
C1639      F1646   1.357       .  S
C1640      C1641   1.409       .  A
C1640      F1645   1.358       .  S
C1641      C1642   1.412       .  A
C1642      F1643   1.358       .  S
C1647      C1648   1.409       .  A
C1647      C1652   1.403       .  A
C1647      F1654   1.358       .  S
C1648      C1649   1.410       .  A
C1649      C1650   1.393       .  A
C1649      F1656   1.358       .  S
C1650      C1651   1.400       .  A
C1650      F1655   1.356       .  S
C1651      C1652   1.404       .  A
C1652      F1653   1.358       .  S
O1657     Mg1659   2.129       .  S
O1657     Mg1665   2.147       .  S
O1657      C1692   1.231       .  S
C1658      O1671   1.237       .  S
C1658      O1695   1.271       .  A
C1658      H1697   1.081       .  S
Mg1659     O1688   2.137       .  S
Mg1659     O1699   2.224       .  S
Mg1659     O1670   2.301       .  S
O1660     Mg1702   2.135       .  S
O1660     Mg1685   2.136       .  S
O1660      C1681   1.236       .  S
O1661      C1692   1.264       .  A
O1661     Mg1685   2.287       .  S
C1662      O1664   1.272       .  A
C1662      O1676   1.271       .  A
C1662      C1707   1.470       .  S
O1663      C1691   1.273       .  A
O1663     Mg1665   2.316       .  S
O1664     Mg1696   2.267       .  S
Mg1665     O1671   2.143       .  S
Mg1665     O1667   2.265       .  S
C1666      O1704   1.269       .  A
C1666      O1672   1.267       .  A
C1666      C2469   1.481       .  S
O1667      C1674   1.271       .  A
H1668      C1681   1.081       .  S
C1669      O1683   1.232       .  S
C1669      O1684   1.265       .  A
C1669      H1694   1.082       .  S
O1670      C1693   1.271       .  A
O1671     Mg1685   2.190       .  S
O1672     Mg1702   2.273       .  S
C1673      O1686   1.268       .  A
C1673      O1678   1.272       .  A
C1673      C2243   1.468       .  S
C1674      O1701   1.271       .  A
C1674      C2223   1.466       .  S
Mg1675     O1682   2.145       .  S
Mg1675     O1683   2.158       .  S
Mg1675     O1676   2.278       .  S
Mg1675     O1677   2.311       .  S
Mg1675     O1704   2.272       .  S
O1677      C1681   1.272       .  A
O1678     Mg1685   2.297       .  S
O1679      C1698   1.269       .  A
O1680      C1700   1.271       .  A
O1680     Mg1696   2.294       .  S
O1682     Mg1696   2.181       .  S
O1682      C1693   1.237       .  S
O1683     Mg1702   2.146       .  S
O1684     Mg1696   2.293       .  S
Mg1685     O1701   2.260       .  S
O1686     Mg1702   2.240       .  S
H1687      C1692   1.082       .  S
O1688     Mg1696   2.151       .  S
O1688      C1691   1.238       .  S
H1689      C1691   1.082       .  S
H1690      C1693   1.081       .  S
O1695     Mg1702   2.298       .  S
C1698      O1703   1.270       .  A
C1698      C2476   1.480       .  S
O1699      C1700   1.266       .  A
C1705      C2593   1.465       .  S
C1705      C1706   1.389       .  A
C1705      C1710   1.416       .  A
C1706      H1725   1.086       .  S
C1706      C1707   1.393       .  A
C1707      C1708   1.420       .  A
C1708      C1709   1.418       .  A
C1708      C1715   1.405       .  A
C1709      C1710   1.418       .  A
C1709      C1714   1.424       .  A
C1710      C1711   1.406       .  A
C1711      H2549   1.083   1_545  S
C1711      C1712   1.394       .  A
C1712      H1722   1.083       .  S
C1712      C1713   1.406       .  A
C1713      C1714   1.420       .  A
C1713      C1720   1.414       .  A
C1714      C1717   1.421       .  A
C1715      H1723   1.083       .  S
C1715      C1716   1.398       .  A
C1716      H1724   1.082       .  S
C1716      C1717   1.409       .  A
C1717      C1718   1.423       .  A
C1718      C1920   1.487       .  S
C1718      C1719   1.401       .  A
C1719      H1726   1.085       .  S
C1719      C1720   1.402       .  A
C1720      C1872   1.474       .  S
H1721      C2539   1.083       .  S
C1727      C1728   1.398       .  A
C1727      C1732   1.409       .  A
C1728      H1747   1.086       .  S
C1728      C1729   1.392       .  A
C1729      C2668   1.469       .  S
C1729      C1730   1.414       .  A
C1730      C1731   1.419       .  A
C1730      C1737   1.406       .  A
C1731      C1732   1.418       .  A
C1731      C1736   1.417       .  A
C1732      C1733   1.405       .  A
C1733      C1734   1.394       .  A
C1734      H1744   1.083       .  S
C1734      C1735   1.405       .  A
C1735      C1736   1.417       .  A
C1735      C1742   1.409       .  A
C1736      C1739   1.420       .  A
C1737      H2573   1.083       .  S
C1737      C1738   1.395       .  A
C1738      H1746   1.083       .  S
C1738      C1739   1.405       .  A
C1739      C1740   1.414       .  A
C1740      C1910   1.471       .  S
C1740      C1741   1.393       .  A
C1741      H1748   1.086       .  S
C1741      C1742   1.397       .  A
C1742      C2006   1.464       .  S
H1745      C2565   1.083       .  S
O1749     Mg1751   2.166       .  S
O1749     Mg1757   2.132       .  S
O1749      C1784   1.233       .  S
C1750      O1763   1.235       .  S
C1750      O1787   1.270       .  A
C1750      H1789   1.081       .  S
Mg1751     O1780   2.138       .  S
Mg1751     O1791   2.235       .  S
Mg1751     O1762   2.306       .  S
O1752     Mg1794   2.143       .  S
O1752     Mg1777   2.156       .  S
O1752      C1773   1.236       .  S
O1753      C1784   1.269       .  A
O1753     Mg1777   2.308       .  S
C1754      O1756   1.271       .  A
C1754      O1768   1.273       .  A
C1754      C2265   1.476       .  S
O1755      C1783   1.276       .  A
O1755     Mg1757   2.333       .  S
O1756     Mg1788   2.276       .  S
Mg1757     O1763   2.145       .  S
Mg1757     O1759   2.313       .  S
C1758      O1796   1.268   1_545  A
C1758      O1764   1.266       .  A
C1758      C2449   1.474       .  S
O1759      C1766   1.274       .  A
H1760      C1773   1.082       .  S
C1761      O1775   1.232       .  S
C1761      O1776   1.268       .  A
C1761      H1786   1.081       .  S
O1762      C1785   1.270       .  A
O1763     Mg1777   2.167       .  S
O1764     Mg2622   2.281   1_545  S
C1765      O2606   1.267       .  A
C1765      O1770   1.273       .  A
C1765      C2533   1.465       .  S
C1766      O1793   1.271       .  A
Mg1767     O1774   2.153       .  S
Mg1767     O1775   2.137       .  S
Mg1767     O1768   2.302       .  S
Mg1767     O1769   2.323       .  S
Mg1767     O2624   2.265       .  S
O1769      C1773   1.274       .  A
O1770     Mg1777   2.306       .  S
O1771      C1790   1.267       .  A
O1772      C1792   1.273       .  A
O1772     Mg1788   2.315       .  S
O1774     Mg1788   2.172       .  S
O1774      C1785   1.235       .  S
O1775     Mg1794   2.168       .  S
O1776     Mg1788   2.309       .  S
Mg1777     O1793   2.276       .  S
O1778      C2593   1.267       .  A
O1778     Mg2622   2.230   1_545  S
H1779      C1784   1.081       .  S
O1780     Mg1788   2.158       .  S
O1780      C1783   1.238       .  S
H1781      C1783   1.082       .  S
H1782      C1785   1.081       .  S
O1787     Mg1794   2.301       .  S
C1790      O1795   1.263       .  A
C1790      C2456   1.474       .  S
O1791      C1792   1.266       .  A
C1792      C2221   1.469       .  S
Mg1794     O2592   2.281       .  S
Mg1794     O2606   2.230       .  S
O1796     Mg2595   2.265       .  S
O1797     Mg1799   2.157       .  S
O1797     Mg1805   2.140       .  S
O1797      C1832   1.233       .  S
C1798      O1811   1.235       .  S
C1798      O1835   1.269       .  A
C1798      H1837   1.081       .  S
Mg1799     O1828   2.142       .  S
Mg1799     O2671   2.279       .  S
Mg1799     O2667   2.236       .  S
Mg1799     O1810   2.299       .  S
O1800     Mg1842   2.145       .  S
O1800     Mg1825   2.156       .  S
O1800      C1821   1.238       .  S
O1801      C1832   1.268       .  A
O1801     Mg1825   2.303       .  S
C1802      O1804   1.274       .  A
C1802      O1816   1.268       .  A
C1802      C1847   1.473       .  S
O1803      C1831   1.274       .  A
O1803     Mg1805   2.319       .  S
O1804     Mg1836   2.300       .  S
Mg1805     O1811   2.134       .  S
Mg1805     O1819   2.241       .  S
Mg1805     O1807   2.271       .  S
C1806      O1844   1.265       .  A
C1806      O1812   1.267       .  A
C1806      C2436   1.481       .  S
O1807      C1814   1.270       .  A
H1808      C1821   1.081       .  S
C1809      O1823   1.234       .  S
C1809      O1824   1.270       .  A
C1809      H1834   1.081       .  S
O1810      C1833   1.270       .  A
O1811     Mg1825   2.180       .  S
O1812     Mg1842   2.279       .  S
C1813      O1826   1.267       .  A
C1813      O1818   1.277       .  A
C1813      C2245   1.468       .  S
C1814      O1841   1.276       .  A
C1814      C2267   1.479       .  S
Mg1815     O1822   2.140       .  S
Mg1815     O1823   2.130       .  S
Mg1815     O1816   2.266       .  S
Mg1815     O1817   2.320       .  S
Mg1815     O1844   2.255       .  S
O1817      C1821   1.275       .  A
O1818     Mg1825   2.329       .  S
O1819      C2666   1.265       .  A
O1820      C1840   1.277       .  A
O1820     Mg1836   2.327       .  S
O1822     Mg1836   2.165       .  S
O1822      C1833   1.235       .  S
O1823     Mg1842   2.156       .  S
O1824     Mg1836   2.309       .  S
Mg1825     O1841   2.312       .  S
O1826     Mg1842   2.227       .  S
H1827      C1832   1.081       .  S
O1828     Mg1836   2.153       .  S
O1828      C1831   1.238       .  S
H1829      C1831   1.082       .  S
H1830      C1833   1.082       .  S
O1835     Mg1842   2.295       .  S
C1838      O2647   1.265   1_545  A
C1838      O1843   1.268   1_545  A
C1838      C2429   1.480       .  S
O1839      C2668   1.268       .  A
O1839     Mg2627   2.236   1_545  S
C1840      O2667   1.268       .  A
C1840      C2557   1.469       .  S
O1843     Mg2627   2.279       .  S
C1845      C1846   1.399       .  A
C1845      C1850   1.410       .  A
C1846      H1865   1.086       .  S
C1846      C1847   1.400       .  A
C1847      C1848   1.411       .  A
C1848      C1849   1.421       .  A
C1848      C1855   1.406       .  A
C1849      C1850   1.421       .  A
C1849      C1854   1.418       .  A
C1850      C1851   1.404       .  A
C1851      H1861   1.083       .  S
C1851      C1852   1.393       .  A
C1852      H1862   1.082       .  S
C1852      C1853   1.407       .  A
C1853      C1854   1.419       .  A
C1853      C1860   1.415       .  A
C1854      C1857   1.418       .  A
C1855      H1863   1.083       .  S
C1855      C1856   1.394       .  A
C1856      H1864   1.083       .  S
C1856      C1857   1.405       .  A
C1857      C1858   1.411       .  A
C1858      C1958   1.466       .  S
C1858      C1859   1.399       .  A
C1859      H1866   1.086       .  S
C1859      C1860   1.394       .  A
C1860      C1968   1.476       .  S
O1867     Mg1869   2.150   1_556  S
O1867     Mg2703   2.116   1_545  S
O1867      C1902   1.238       .  S
C1868      O1881   1.231       .  S
C1868      O1905   1.265       .  A
C1868      H1907   1.081       .  S
Mg1869     O2726   2.155   1_545  S
Mg1869     O1913   2.304   1_545  S
Mg1869     O1909   2.242       .  S
Mg1869     O1880   2.299       .  S
O1870     Mg2740   2.160   1_545  S
O1870     Mg2723   2.148   1_545  S
O1870      C1891   1.239       .  S
O1871      C1902   1.275       .  A
O1871     Mg2723   2.328   1_545  S
C1872      O1874   1.272       .  A
C1872      O1886   1.264       .  A
O1873      C1901   1.276       .  A
O1873     Mg1875   2.318   1_554  S
O1874     Mg1906   2.314       .  S
Mg1875     O2695   2.116       .  S
Mg1875     O1881   2.141       .  S
Mg1875     O1889   2.242       .  S
Mg1875     O1877   2.261       .  S
C1876      O1914   1.264   1_556  A
C1876      O2710   1.271       .  A
C1876      C2419   1.474       .  S
O1877      C1884   1.264       .  A
H1878      C1891   1.082       .  S
C1879      O1893   1.237       .  S
C1879      O1894   1.275       .  A
C1879      H1904   1.081       .  S
O1880      C1903   1.267       .  A
O1881     Mg1895   2.145       .  S
O1882      C2704   1.271       .  A
O1882     Mg1912   2.301       .  S
C1883      O1896   1.271       .  A
C1883      O1888   1.277       .  A
C1883      C2081   1.474       .  S
C1884      O1911   1.270       .  A
C1884      C2199   1.465       .  S
Mg1885     O1892   2.143       .  S
Mg1885     O2721   2.123   1_545  S
Mg1885     O1886   2.270       .  S
Mg1885     O1887   2.312   1_554  S
Mg1885     O1914   2.224       .  S
O1887      C1891   1.274       .  A
O1888     Mg1895   2.336       .  S
O1889      C1908   1.265   1_556  A
O1890      C1910   1.277       .  A
O1890     Mg1906   2.333       .  S
O1892     Mg1906   2.142       .  S
O1892      C1903   1.232       .  S
O1893     Mg2713   2.123       .  S
O1893     Mg1912   2.154   1_554  S
O1894     Mg2734   2.326       .  S
Mg1895     O2698   2.148       .  S
Mg1895     O2699   2.328       .  S
Mg1895     O1911   2.289       .  S
O1896     Mg1912   2.249       .  S
H1897      C1902   1.081       .  S
O1898     Mg2697   2.155       .  S
O1898     Mg2734   2.159       .  S
O1898      C1901   1.240       .  S
H1899      C1901   1.081       .  S
H1900      C1903   1.081       .  S
O1905     Mg1912   2.294       .  S
Mg1906     O2726   2.160   1_545  S
Mg1906     O2722   2.326   1_545  S
C1908      O2741   1.272       .  A
C1908      C2406   1.481       .  S
O1909      C1910   1.270       .  A
Mg1912     O2698   2.160       .  S
O1913      C2736   1.272       .  A
O1915     Mg1917   2.146   1_556  S
O1915     Mg1923   2.145       .  S
O1915      C1950   1.231       .  S
C1916      O1929   1.236       .  S
C1916      O1953   1.270       .  A
C1916      H1955   1.081       .  S
Mg1917     O1946   2.144       .  S
Mg1917     O1961   2.269       .  S
Mg1917     O1957   2.222       .  S
Mg1917     O1928   2.289       .  S
O1918     Mg1960   2.153       .  S
O1918     Mg1943   2.161       .  S
O1918      C1939   1.238   1_556  S
O1919      C1950   1.264       .  A
O1919     Mg1943   2.291       .  S
C1920      O1922   1.276       .  A
C1920      O1934   1.275       .  A
O1921      C1949   1.275       .  A
O1921     Mg1923   2.321       .  S
O1922     Mg1954   2.292       .  S
Mg1923     O1929   2.140       .  S
Mg1923     O1937   2.273       .  S
Mg1923     O1925   2.318       .  S
C1924      O1962   1.269       .  A
C1924      O1930   1.270   1_554  A
C1924      C2389   1.481       .  S
O1925      C1932   1.277       .  A
H1926      C1939   1.081       .  S
C1927      O1941   1.231       .  S
C1927      O1942   1.264       .  A
C1927      H1952   1.082   1_554  S
O1928      C1951   1.270       .  A
O1929     Mg1943   2.184       .  S
O1930     Mg1960   2.283       .  S
C1931      O1944   1.266       .  A
C1931      O1936   1.276       .  A
C1931      C2061   1.471       .  S
C1932      O1959   1.277       .  A
C1932      C2201   1.485       .  S
Mg1933     O1940   2.127       .  S
Mg1933     O1941   2.148       .  S
Mg1933     O1934   2.307       .  S
Mg1933     O1935   2.315       .  S
Mg1933     O1962   2.249       .  S
O1935      C1939   1.274       .  A
O1936     Mg1943   2.316       .  S
O1937      C1956   1.271       .  A
O1938      C1958   1.273       .  A
O1938     Mg1954   2.301       .  S
O1940     Mg1954   2.179       .  S
O1940      C1951   1.238       .  S
O1941     Mg1960   2.140   1_554  S
O1942     Mg1954   2.287       .  S
Mg1943     O1959   2.291       .  S
O1944     Mg1960   2.224       .  S
H1945      C1950   1.082   1_554  S
O1946     Mg1954   2.157       .  S
O1946      C1949   1.238   1_554  S
H1947      C1949   1.081       .  S
H1948      C1951   1.081       .  S
O1953     Mg1960   2.292       .  S
C1956      O1961   1.266   1_556  A
C1956      C2399   1.474       .  S
O1957      C1958   1.266       .  A
O1963     Mg1965   2.143   1_556  S
O1963      C1998   1.230       .  S
C1964      O1977   1.237   1_655  S
C1964      O2001   1.270       .  A
C1964      H2003   1.081       .  S
Mg1965     O1976   2.291       .  S
O1966     Mg1991   2.148       .  S
O1966      C1987   1.237   1_556  S
O1967      C1998   1.264       .  A
O1967     Mg1991   2.289       .  S
C1968      O1970   1.273       .  A
C1968      O1982   1.274       .  A
O1969      C1997   1.274       .  A
O1969     Mg1971   2.320       .  S
O1970     Mg2002   2.271       .  S
Mg1971     O1977   2.139   1_655  S
Mg1971     O1985   2.274       .  S
C1972      O2010   1.269       .  A
C1972      O1978   1.268   1_554  A
C1972      C2376   1.477       .  S
O1973      C1980   1.276       .  A
H1974      C1987   1.082       .  S
C1975      O1989   1.231       .  S
C1975      O1990   1.264       .  A
C1975      H2000   1.081   1_554  S
O1976      C1999   1.270       .  A
C1979      O1992   1.265       .  A
C1979      O1984   1.272       .  A
C1979      C2083   1.466       .  S
C1980      O2007   1.273       .  A
C1980      C2059   1.476       .  S
Mg1981     O1988   2.128       .  S
Mg1981     O1989   2.148       .  S
Mg1981     O1982   2.292       .  S
O1983      C1987   1.272       .  A
O1984     Mg1991   2.300       .  S
O1985      C2004   1.271       .  A
O1986      C2006   1.271       .  A
O1986     Mg2002   2.292       .  S
O1988     Mg2002   2.181       .  S
O1989     Mg2008   2.138   1_654  S
O1990     Mg2002   2.289       .  S
Mg1991     O2007   2.269       .  S
H1993      C1998   1.081   1_554  S
O1994     Mg2002   2.150       .  S
O1994      C1997   1.238   1_554  S
H1995      C1997   1.082       .  S
H1996      C1999   1.081       .  S
O2001     Mg2008   2.293   1_655  S
C2004      O2009   1.268   1_556  A
C2004      C2366   1.481       .  S
O2005      C2006   1.267       .  A
O2011     Mg2013   2.147       .  S
O2011     Mg2019   2.132       .  S
O2011      C2046   1.236       .  S
C2012      O2025   1.233       .  S
C2012      O2049   1.267       .  A
C2012      H2051   1.081       .  S
Mg2013     O2042   2.157       .  S
Mg2013     O2057   2.294       .  S
Mg2013     O2053   2.241       .  S
Mg2013     O2024   2.294       .  S
O2014     Mg2056   2.151       .  S
O2014     Mg2039   2.152       .  S
O2014      C2035   1.239       .  S
O2015      C2046   1.271       .  A
O2015     Mg2039   2.310       .  S
C2016      O2018   1.269       .  A
C2016      O2030   1.266       .  A
C2016      C2280   1.466       .  S
O2017      C2045   1.272       .  A
O2017     Mg2019   2.306       .  S
O2018     Mg2050   2.281       .  S
Mg2019     O2025   2.138       .  S
Mg2019     O2033   2.240       .  S
Mg2019     O2021   2.259       .  S
C2020      O2058   1.262       .  A
C2020      O2026   1.271       .  A
C2020      C2356   1.466       .  S
O2021      C2028   1.267       .  A
H2022      C2035   1.081       .  S
C2023      O2037   1.237       .  S
C2023      O2038   1.273       .  A
C2023      H2048   1.081       .  S
O2024      C2047   1.266       .  A
O2025     Mg2039   2.156       .  S
O2026     Mg2884   2.302       .  S
C2027      O2040   1.271       .  A
C2027      O2860   1.276       .  A
C2027      C2096   1.474       .  S
C2028      O2055   1.272       .  A
C2028      C2072   1.466       .  S
Mg2029     O2036   2.125       .  S
Mg2029     O2037   2.127       .  S
Mg2029     O2030   2.270       .  S
Mg2029     O2031   2.314       .  S
Mg2029     O2886   2.212       .  S
O2031      C2035   1.274       .  A
O2032      C2855   1.276   1_545  A
O2032     Mg2039   2.323       .  S
O2033      C2052   1.266       .  A
O2034      C2054   1.274       .  A
O2034     Mg2050   2.309       .  S
O2036     Mg2050   2.145       .  S
O2036      C2047   1.232       .  S
O2037     Mg2056   2.163       .  S
O2038     Mg2050   2.322       .  S
Mg2039     O2055   2.287       .  S
O2040     Mg2884   2.258       .  S
H2041      C2046   1.081       .  S
O2042     Mg2050   2.144       .  S
O2042      C2045   1.238       .  S
H2043      C2045   1.081       .  S
H2044      C2047   1.082       .  S
O2049     Mg2056   2.296       .  S
C2052      O2057   1.272       .  A
C2052      C2346   1.480       .  S
O2053      C2054   1.270       .  A
C2054      C2258   1.467       .  S
Mg2056     O2854   2.302   1_545  S
Mg2056     O2868   2.258   1_545  S
O2058     Mg2857   2.213       .  S
C2059      C2060   1.396       .  A
C2059      C2064   1.416       .  A
C2060      H2079   1.086       .  S
C2060      C2061   1.399       .  A
C2061      C2062   1.413       .  A
C2062      C2063   1.420       .  A
C2062      C2069   1.405       .  A
C2063      C2064   1.418       .  A
C2063      C2068   1.420       .  A
C2064      C2065   1.407       .  A
C2065      H2075   1.083       .  S
C2065      C2066   1.395       .  A
C2066      H2076   1.082       .  S
C2066      C2067   1.406       .  A
C2067      C2068   1.422       .  A
C2067      C2074   1.418       .  A
C2068      C2071   1.418       .  A
C2069      H2077   1.083       .  S
C2069      C2070   1.393       .  A
C2070      H2078   1.083       .  S
C2070      C2071   1.405       .  A
C2071      C2072   1.409       .  A
C2072      C2073   1.399       .  A
C2073      H2080   1.086       .  S
C2073      C2074   1.397       .  A
C2081      C2082   1.396       .  A
C2081      C2086   1.415       .  A
C2082      H2101   1.086       .  S
C2082      C2083   1.400       .  A
C2083      C2084   1.409       .  A
C2084      C2085   1.418       .  A
C2084      C2091   1.405       .  A
C2085      C2086   1.419       .  A
C2085      C2090   1.417       .  A
C2086      C2087   1.406       .  A
C2087      H2097   1.083       .  S
C2087      C2088   1.397       .  A
C2088      H2098   1.083       .  S
C2088      C2089   1.406       .  A
C2089      C2090   1.419       .  A
C2089      C2096   1.415       .  A
C2090      C2093   1.418       .  A
C2091      H2099   1.083       .  S
C2091      C2092   1.391       .  A
C2092      C2093   1.405       .  A
C2093      C2094   1.409       .  A
C2094      C2095   1.400       .  A
C2095      H2102   1.086       .  S
C2095      C2096   1.395       .  A
O2103     Mg2105   2.141       .  S
O2103     Mg2111   2.148       .  S
O2103      C2138   1.230       .  S
C2104      O2117   1.237       .  S
C2104      O2141   1.271       .  A
C2104      H2143   1.081       .  S
Mg2105     O2134   2.146       .  S
Mg2105     O2145   2.221       .  S
Mg2105     O2116   2.293       .  S
O2106     Mg2148   2.145       .  S
O2106     Mg2131   2.153       .  S
O2106      C2127   1.237       .  S
O2107      C2138   1.264       .  A
O2107     Mg2131   2.288       .  S
C2108      O2110   1.276       .  A
C2108      O2122   1.275       .  A
C2108      C2278   1.482       .  S
O2109      C2137   1.274       .  A
O2109     Mg2111   2.322       .  S
O2110     Mg2142   2.285       .  S
Mg2111     O2117   2.138       .  S
C2112      O2150   1.271       .  A
C2112      O2118   1.269       .  A
C2112      C2326   1.485       .  S
H2114      C2127   1.081       .  S
C2115      O2129   1.231       .  S
C2115      O2130   1.264       .  A
C2115      H2140   1.082       .  S
O2116      C2139   1.271       .  A
O2117     Mg2131   2.183       .  S
O2118     Mg2976   2.282       .  S
C2119      O2132   1.266       .  A
C2119      O2124   1.272   1_565  A
C2119      C3042   1.468       .  S
C2120      O2147   1.274   1_455  A
Mg2121     O2128   2.140       .  S
Mg2121     O2129   2.147       .  S
Mg2121     O2122   2.305       .  S
Mg2121     O2123   2.313       .  S
Mg2121     O2978   2.267   1_545  S
O2123      C2127   1.273       .  A
O2124     Mg2131   2.296       .  S
O2125      C2144   1.270       .  A
O2126      C2146   1.274       .  A
O2126     Mg2142   2.306       .  S
O2128     Mg2142   2.182       .  S
O2128      C2139   1.237       .  S
O2129     Mg2148   2.142       .  S
O2130     Mg2142   2.289       .  S
Mg2131     O2147   2.270       .  S
O2132     Mg2148   2.229   1_565  S
H2133      C2138   1.082   1_455  S
O2134     Mg2142   2.159       .  S
O2134      C2137   1.238       .  S
H2135      C2137   1.081       .  S
H2136      C2139   1.081       .  S
O2141     Mg2148   2.294       .  S
C2144      O2149   1.267       .  A
C2144      C2336   1.472       .  S
O2145      C2146   1.266       .  A
C2146      C2234   1.469       .  S
Mg2148     O2946   2.282   1_545  S
O2150     Mg2949   2.267       .  S
O2151     Mg2153   2.136       .  S
O2151     Mg2159   2.145       .  S
O2151      C2186   1.231       .  S
C2152      O2165   1.237       .  S
C2152      O2189   1.270       .  A
C2152      H2191   1.081       .  S
Mg2153     O2182   2.142       .  S
Mg2153     O2197   2.279       .  S
Mg2153     O2193   2.226       .  S
Mg2153     O2164   2.296       .  S
O2154     Mg2196   2.150       .  S
O2154     Mg2179   2.159       .  S
O2154      C2175   1.236       .  S
O2155      C2186   1.264       .  A
O2155     Mg2179   2.287       .  S
C2156      O2158   1.276       .  A
C2156      O2170   1.274       .  A
C2156      C2236   1.480       .  S
O2157      C2185   1.275       .  A
O2157     Mg2159   2.321       .  S
O2158     Mg2190   2.292       .  S
Mg2159     O2165   2.145       .  S
Mg2159     O2173   2.282       .  S
Mg2159     O2161   2.299       .  S
C2160      O2198   1.272       .  A
C2160      O2166   1.271       .  A
C2160      C2309   1.491       .  S
O2161      C2168   1.275       .  A
H2162      C2175   1.082       .  S
C2163      O2177   1.232       .  S
C2163      O2178   1.265       .  A
C2163      H2188   1.081       .  S
O2164      C2187   1.271       .  A
O2165     Mg2179   2.189       .  S
C2167      O2180   1.265       .  A
C2167      O2172   1.273   1_455  A
C2168      O2195   1.276       .  A
C2168      C2212   1.479       .  S
Mg2169     O2176   2.146       .  S
Mg2169     O2177   2.153       .  S
Mg2169     O2170   2.291       .  S
Mg2169     O2171   2.308       .  S
O2171      C2175   1.271       .  A
O2172     Mg2179   2.302       .  S
O2173      C2192   1.271       .  A
O2174      C2194   1.275       .  A
O2174     Mg2190   2.316       .  S
O2176     Mg2190   2.183       .  S
O2176      C2187   1.237       .  S
O2177     Mg2196   2.136       .  S
O2178     Mg2190   2.291       .  S
Mg2179     O2195   2.285       .  S
O2180     Mg2196   2.212   1_455  S
H2181      C2186   1.081       .  S
O2182     Mg2190   2.161       .  S
O2182      C2185   1.238       .  S
H2183      C2185   1.082       .  S
H2184      C2187   1.081       .  S
O2189     Mg2196   2.294       .  S
C2192      O2197   1.269       .  A
C2192      C2319   1.479       .  S
O2193      C2194   1.266       .  A
C2194      C2256   1.469       .  S
C2199      C2200   1.399       .  A
C2199      C2204   1.408       .  A
C2200      H2219   1.086       .  S
C2200      C2201   1.398       .  A
C2201      C2202   1.422       .  A
C2202      C2203   1.422       .  A
C2202      C2209   1.407       .  A
C2203      C2204   1.418       .  A
C2203      C2208   1.420       .  A
C2204      C2205   1.406       .  A
C2205      H2215   1.083       .  S
C2205      C2206   1.390       .  A
C2206      H2216   1.083       .  S
C2206      C2207   1.403       .  A
C2207      C2208   1.419       .  A
C2207      C2214   1.409       .  A
C2208      C2211   1.420       .  A
C2209      H2217   1.082       .  S
C2209      C2210   1.397       .  A
C2210      H2218   1.082       .  S
C2210      C2211   1.407       .  A
C2211      C2212   1.419       .  A
C2212      C2213   1.396       .  A
C2213      H2220   1.086       .  S
C2213      C2214   1.398       .  A
C2214      C2947   1.468       .  S
C2221      C2222   1.393       .  A
C2221      C2226   1.420       .  A
C2222      H2241   1.086       .  S
C2222      C2223   1.393       .  A
C2223      C2224   1.414       .  A
C2224      C2225   1.417       .  A
C2224      C2231   1.407       .  A
C2225      C2226   1.418       .  A
C2226      C2227   1.407       .  A
C2227      H2237   1.083       .  S
C2228      H2238   1.083       .  S
C2228      C2229   1.408       .  A
C2229      C2230   1.420       .  A
C2229      C2236   1.421       .  A
C2230      C2233   1.419       .  A
C2231      H2239   1.083       .  S
C2232      H2240   1.083       .  S
C2232      C2233   1.404       .  A
C2233      C2234   1.411       .  A
C2234      C2235   1.399       .  A
C2235      H2242   1.086       .  S
C2235      C2236   1.396       .  A
C2243      C2244   1.398       .  A
C2243      C2248   1.409       .  A
C2244      H2263   1.086       .  S
C2244      C2245   1.393       .  A
C2245      C2246   1.415       .  A
C2246      C2247   1.418       .  A
C2246      C2253   1.408       .  A
C2247      C2248   1.420       .  A
C2247      C2252   1.418       .  A
C2248      C2249   1.403       .  A
C2249      H2259   1.083       .  S
C2249      C2250   1.392       .  A
C2250      H2260   1.083       .  S
C2250      C2251   1.407       .  A
C2251      C2252   1.417       .  A
C2251      C2258   1.410       .  A
C2252      C2255   1.420       .  A
C2253      H2261   1.083       .  S
C2253      C2254   1.397       .  A
C2254      H2262   1.083       .  S
C2254      C2255   1.404       .  A
C2255      C2256   1.414       .  A
C2256      C2257   1.399       .  A
C2257      H2264   1.086       .  S
C2257      C2258   1.392       .  A
C2265      C2266   1.399       .  A
C2265      C2270   1.407       .  A
C2266      H2285   1.086       .  S
C2266      C2267   1.403       .  A
C2267      C2268   1.416       .  A
C2268      C2269   1.422       .  A
C2268      C2275   1.405       .  A
C2269      C2270   1.422       .  A
C2269      C3102   1.420       .  A
C2270      C2271   1.403       .  A
C2271      H2281   1.083       .  S
C2271      C3100   1.389       .  A
C2272      H2282   1.083       .  S
C2272      C3099   1.389   1_545  A
C2272      C2273   1.404       .  A
C2273      C2274   1.419       .  A
C2273      C2280   1.407       .  A
C2274      C3097   1.420   1_545  A
C2274      C2277   1.421       .  A
C2275      H2283   1.083       .  S
C2275      C3104   1.399       .  A
C2276      H2284   1.082       .  S
C2276      C3103   1.399   1_545  A
C2276      C2277   1.409       .  A
C2277      C2278   1.422       .  A
C2278      C2279   1.398       .  A
C2279      H2286   1.086       .  S
C2279      C2280   1.397       .  A
C2287      C2369   1.478   1_554  S
C2287      C3120   1.409   1_545  A
C2288      C2386   1.480       .  S
C2288      C3117   1.408       .  A
C2289      C3244   1.480       .  S
C2289      C3116   1.408       .  A
C2290      C2291   1.408   1_455  A
C2291      C2396   1.477       .  S
C2291      C2292   1.409       .  A
C2292      C2409   1.484       .  S
C2292      C3115   1.409       .  A
C2293      C2426   1.484       .  S
C2293      C2294   1.411       .  A
C2293      C2298   1.414       .  A
C2294      C2479   1.481       .  S
C2294      C2295   1.410       .  A
C2295      C2459   1.482       .  S
C2295      C2296   1.415       .  A
C2296      C2439   1.489       .  S
C2296      C2297   1.413       .  A
C2297      C2466   1.479       .  S
C2297      C2298   1.411       .  A
C2298      C2446   1.488       .  S
C2299      C2359   1.475       .  S
C2299      C2300   1.410       .  A
C2299      C2304   1.409       .  A
C2300      C2329   1.484       .  S
C2300      C2301   1.410       .  A
C2301      C2316   1.482       .  S
C2301      C2302   1.411       .  A
C2302      C2349   1.482       .  S
C2302      C2303   1.412       .  A
C2303      C2339   1.479       .  S
C2303      C2304   1.408       .  A
C2304      C2306   1.487       .  S
C2305      C2306   1.404       .  A
C2305      C2310   1.399       .  A
C2305      F2312   1.358       .  S
C2306      C2307   1.400       .  A
C2307      C2308   1.399       .  A
C2307      F2314   1.357       .  S
C2308      C2309   1.416       .  A
C2308      F2313   1.358       .  S
C2309      C2310   1.410       .  A
C2310      F2311   1.358       .  S
C2315      C2316   1.399       .  A
C2315      C2320   1.395       .  A
C2315      F2322   1.357       .  S
C2316      C2317   1.405       .  A
C2317      C2318   1.401       .  A
C2317      F2324   1.358       .  S
C2318      C2319   1.407       .  A
C2318      F2323   1.358       .  S
C2319      C2320   1.412       .  A
C2320      F2321   1.358       .  S
C2325      C2326   1.408       .  A
C2325      C2330   1.397       .  A
C2325      F2332   1.358       .  S
C2326      C2327   1.416       .  A
C2327      C2328   1.399       .  A
C2327      F2334   1.358       .  S
C2328      C2329   1.400       .  A
C2328      F2333   1.357       .  S
C2329      C2330   1.403       .  A
C2330      F2331   1.358       .  S
C2335      C2336   1.404       .  A
C2335      C2340   1.398       .  A
C2335      F2342   1.358       .  S
C2336      C2337   1.411       .  A
C2337      C2338   1.395       .  A
C2337      F2344   1.358       .  S
C2338      C2339   1.399       .  A
C2338      F2343   1.358       .  S
C2339      C2340   1.405       .  A
C2340      F2341   1.358       .  S
C2345      C2346   1.407       .  A
C2345      C2350   1.396       .  A
C2345      F2352   1.358       .  S
C2346      C2347   1.413       .  A
C2347      C2348   1.398       .  A
C2347      F2354   1.358       .  S
C2348      C2349   1.401       .  A
C2348      F2353   1.357       .  S
C2349      C2350   1.404       .  A
C2350      F2351   1.357       .  S
C2355      C2356   1.410       .  A
C2355      C2360   1.391       .  A
C2355      F2362   1.359       .  S
C2356      C2357   1.402       .  A
C2357      C2358   1.398       .  A
C2357      F2364   1.357       .  S
C2358      C2359   1.405       .  A
C2358      F2363   1.358       .  S
C2359      C2360   1.398       .  A
C2360      F2361   1.358       .  S
C2365      C2366   1.407       .  A
C2365      C2370   1.397       .  A
C2365      F2372   1.358       .  S
C2367      C2368   1.396       .  A
C2367      F2374   1.358       .  S
C2368      F2373   1.357       .  S
C2369      C2370   1.404       .  A
C2370      F2371   1.358       .  S
C2375      C2376   1.413   1_556  A
C2375      C2380   1.395       .  A
C2375      F2382   1.358       .  S
C2377      C2378   1.397       .  A
C2377      F2384   1.358       .  S
C2378      F2383   1.358       .  S
C2379      C2380   1.399   1_554  A
C2380      F2381   1.357       .  S
C2385      C2386   1.403       .  A
C2385      C2390   1.397       .  A
C2385      F2392   1.358       .  S
C2386      C2387   1.400   1_554  A
C2387      C2388   1.396       .  A
C2387      F2394   1.356       .  S
C2388      C2389   1.413   1_556  A
C2388      F2393   1.358       .  S
C2389      C2390   1.409       .  A
C2390      F2391   1.358       .  S
C2395      C2396   1.399       .  A
C2395      C2400   1.396       .  A
C2395      F2402   1.358       .  S
C2396      C2397   1.404   1_554  A
C2397      C2398   1.396       .  A
C2397      F2404   1.357       .  S
C2398      C2399   1.404       .  A
C2398      F2403   1.358       .  S
C2399      C2400   1.413   1_556  A
C2400      F2401   1.358       .  S
C2405      C3234   1.413   1_556  A
C2405      C2410   1.398       .  A
C2405      F2412   1.358       .  S
C2406      C3233   1.413   1_554  A
C2406      C2407   1.407       .  A
C2407      C2408   1.399       .  A
C2407      F2414   1.358       .  S
C2408      C2409   1.404       .  A
C2408      F2413   1.358       .  S
C2409      C3238   1.400   1_554  A
C2410      C3237   1.400   1_556  A
C2410      F2411   1.357       .  S
C2415      C3244   1.399       .  A
C2415      C2420   1.395       .  A
C2415      F2422   1.357       .  S
C2416      C3117   1.480       .  S
C2416      C3243   1.399       .  A
C2416      C2417   1.405   1_554  A
C2417      C2418   1.398       .  A
C2417      F2424   1.357       .  S
C2418      C2419   1.404       .  A
C2418      F2423   1.358       .  S
C2419      C3248   1.412   1_556  A
C2420      C3247   1.412   1_554  A
C2420      F2421   1.359       .  S
C2425      C2426   1.400       .  A
C2425      C2430   1.395       .  A
C2425      F2432   1.358       .  S
C2426      C2427   1.404       .  A
C2427      C2428   1.397       .  A
C2427      F2434   1.356       .  S
C2428      C2429   1.407       .  A
C2428      F2433   1.358       .  S
C2429      C2430   1.413       .  A
C2430      F2431   1.358       .  S
C2435      C2436   1.411       .  A
C2435      C2440   1.397       .  A
C2435      F2442   1.358       .  S
C2436      C2437   1.407       .  A
C2437      C2438   1.400       .  A
C2437      F2444   1.358       .  S
C2438      C2439   1.405       .  A
C2438      F2443   1.357       .  S
C2439      C2440   1.401       .  A
C2440      F2441   1.358       .  S
C2445      C2446   1.408       .  A
C2445      C2450   1.402       .  A
C2445      F2452   1.357       .  S
C2446      C2447   1.402       .  A
C2447      C2448   1.396       .  A
C2447      F2454   1.358       .  S
C2448      C2449   1.407       .  A
C2448      F2453   1.358       .  S
C2449      C2450   1.404       .  A
C2450      F2451   1.357       .  S
C2455      C2456   1.406       .  A
C2455      C2460   1.393       .  A
C2455      F2462   1.358       .  S
C2456      C2457   1.407       .  A
C2457      C2458   1.402       .  A
C2457      F2464   1.358       .  S
C2458      C2459   1.406       .  A
C2458      F2463   1.357       .  S
C2459      C2460   1.402       .  A
C2460      F2461   1.358       .  S
C2465      C2466   1.399       .  A
C2465      C2470   1.393       .  A
C2465      F2472   1.357       .  S
C2466      C2467   1.403       .  A
C2467      C2468   1.399       .  A
C2467      F2474   1.357       .  S
C2468      C2469   1.409       .  A
C2468      F2473   1.358       .  S
C2469      C2470   1.412       .  A
C2470      F2471   1.358       .  S
C2475      C2476   1.409       .  A
C2475      C2480   1.403       .  A
C2475      F2482   1.358       .  S
C2476      C2477   1.410       .  A
C2477      C2478   1.393       .  A
C2477      F2484   1.358       .  S
C2478      C2479   1.400       .  A
C2478      F2483   1.356       .  S
C2479      C2480   1.404       .  A
C2480      F2481   1.358       .  S
O2485     Mg2487   2.129       .  S
O2485     Mg2493   2.147       .  S
O2485      C2520   1.231       .  S
C2486      O2499   1.237       .  S
C2486      O2523   1.271       .  A
C2486      H2525   1.081       .  S
Mg2487     O2516   2.137       .  S
Mg2487     O2527   2.224       .  S
Mg2487     O2498   2.301       .  S
O2488     Mg2530   2.135       .  S
O2488     Mg2513   2.136       .  S
O2488      C2509   1.236       .  S
O2489      C2520   1.264       .  A
O2489     Mg2513   2.287       .  S
C2490      O2492   1.272       .  A
C2490      O2504   1.271       .  A
C2490      C2535   1.470       .  S
O2491      C2519   1.273       .  A
O2491     Mg2493   2.316       .  S
O2492     Mg2524   2.267       .  S
Mg2493     O2499   2.142       .  S
Mg2493     O2495   2.265       .  S
C2494      O2532   1.269       .  A
C2494      O2500   1.267       .  A
C2494      C3297   1.481       .  S
O2495      C2502   1.271       .  A
H2496      C2509   1.081       .  S
C2497      O2511   1.232       .  S
C2497      O2512   1.265       .  A
C2497      H2522   1.082       .  S
O2498      C2521   1.271       .  A
O2499     Mg2513   2.190       .  S
O2500     Mg2530   2.273       .  S
C2501      O2514   1.268       .  A
C2501      O2506   1.272       .  A
C2501      C3071   1.468       .  S
C2502      O2529   1.271       .  A
C2502      C3051   1.466       .  S
Mg2503     O2510   2.145       .  S
Mg2503     O2511   2.158       .  S
Mg2503     O2504   2.278       .  S
Mg2503     O2505   2.311       .  S
Mg2503     O2532   2.273       .  S
O2505      C2509   1.272       .  A
O2506     Mg2513   2.297       .  S
O2507      C2526   1.269       .  A
O2508      C2528   1.271       .  A
O2508     Mg2524   2.294       .  S
O2510     Mg2524   2.181       .  S
O2510      C2521   1.237       .  S
O2511     Mg2530   2.146       .  S
O2512     Mg2524   2.293       .  S
Mg2513     O2529   2.260       .  S
O2514     Mg2530   2.239       .  S
H2515      C2520   1.082       .  S
O2516     Mg2524   2.150       .  S
O2516      C2519   1.238       .  S
H2517      C2519   1.082       .  S
H2518      C2521   1.081       .  S
O2523     Mg2530   2.298       .  S
C2526      O2531   1.270       .  A
C2526      C3304   1.480       .  S
O2527      C2528   1.266       .  A
C2533      C2534   1.389       .  A
C2533      C2538   1.416       .  A
C2534      H2553   1.086       .  S
C2534      C2535   1.393       .  A
C2535      C2536   1.420       .  A
C2536      C2537   1.418       .  A
C2536      C2543   1.405       .  A
C2537      C2538   1.418       .  A
C2537      C2542   1.424       .  A
C2538      C2539   1.406       .  A
C2539      C2540   1.394       .  A
C2540      H2550   1.083       .  S
C2540      C2541   1.406       .  A
C2541      C2542   1.420       .  A
C2541      C2548   1.414       .  A
C2542      C2545   1.421       .  A
C2543      H2551   1.083       .  S
C2543      C2544   1.398       .  A
C2544      H2552   1.082       .  S
C2544      C2545   1.409       .  A
C2545      C2546   1.423       .  A
C2546      C2748   1.487       .  S
C2546      C2547   1.401       .  A
C2547      H2554   1.085       .  S
C2547      C2548   1.402       .  A
C2548      C2700   1.474       .  S
C2555      C2556   1.398       .  A
C2555      C2560   1.409       .  A
C2556      H2575   1.086       .  S
C2556      C2557   1.392       .  A
C2557      C2558   1.414       .  A
C2558      C2559   1.419       .  A
C2558      C2565   1.406       .  A
C2559      C2560   1.418       .  A
C2559      C2564   1.417       .  A
C2560      C2561   1.405       .  A
C2561      C2562   1.394       .  A
C2562      H2572   1.083       .  S
C2562      C2563   1.405       .  A
C2563      C2564   1.417       .  A
C2563      C2570   1.409       .  A
C2564      C2567   1.419       .  A
C2565      C2566   1.395       .  A
C2566      H2574   1.083       .  S
C2566      C2567   1.405       .  A
C2567      C2568   1.414       .  A
C2568      C2738   1.471       .  S
C2568      C2569   1.393       .  A
C2569      H2576   1.086       .  S
C2569      C2570   1.397       .  A
C2570      C2834   1.464       .  S
O2577     Mg2579   2.166       .  S
O2577     Mg2585   2.132       .  S
O2577      C2612   1.233       .  S
C2578      O2591   1.235       .  S
C2578      O2615   1.270       .  A
C2578      H2617   1.081       .  S
Mg2579     O2608   2.138       .  S
Mg2579     O2619   2.235       .  S
Mg2579     O2590   2.306       .  S
O2580     Mg2622   2.143       .  S
O2580     Mg2605   2.156       .  S
O2580      C2601   1.236       .  S
O2581      C2612   1.269       .  A
O2581     Mg2605   2.308       .  S
C2582      O2584   1.271       .  A
C2582      O2596   1.273       .  A
C2582      C3093   1.477       .  S
O2583      C2611   1.276       .  A
O2583     Mg2585   2.333       .  S
O2584     Mg2616   2.276       .  S
Mg2585     O2591   2.145       .  S
Mg2585     O2587   2.313       .  S
C2586      O2624   1.268       .  A
C2586      O2592   1.266       .  A
C2586      C3277   1.474       .  S
O2587      C2594   1.274       .  A
H2588      C2601   1.082       .  S
C2589      O2603   1.232       .  S
C2589      O2604   1.268       .  A
C2589      H2614   1.081       .  S
O2590      C2613   1.270       .  A
O2591     Mg2605   2.167       .  S
C2593      O2598   1.273   1_545  A
C2594      O2621   1.271       .  A
Mg2595     O2602   2.153       .  S
Mg2595     O2603   2.137       .  S
Mg2595     O2596   2.302       .  S
Mg2595     O2597   2.323       .  S
O2597      C2601   1.274       .  A
O2598     Mg2605   2.306       .  S
O2599      C2618   1.267       .  A
O2600      C2620   1.273       .  A
O2600     Mg2616   2.315       .  S
O2602     Mg2616   2.172       .  S
O2602      C2613   1.235       .  S
O2603     Mg2622   2.168       .  S
O2604     Mg2616   2.309       .  S
Mg2605     O2621   2.276       .  S
H2607      C2612   1.081       .  S
O2608     Mg2616   2.158       .  S
O2608      C2611   1.238       .  S
H2609      C2611   1.082       .  S
H2610      C2613   1.081       .  S
O2615     Mg2622   2.301       .  S
C2618      O2623   1.263       .  A
C2618      C3284   1.474       .  S
O2619      C2620   1.266       .  A
C2620      C3049   1.469       .  S
O2625     Mg2627   2.158       .  S
O2625     Mg2633   2.140       .  S
O2625      C2660   1.233       .  S
C2626      O2639   1.235       .  S
C2626      O2663   1.269       .  A
C2626      H2665   1.081       .  S
Mg2627     O2656   2.142       .  S
Mg2627     O2638   2.299       .  S
O2628     Mg2670   2.145       .  S
O2628     Mg2653   2.156       .  S
O2628      C2649   1.238       .  S
O2629      C2660   1.268       .  A
O2629     Mg2653   2.303       .  S
C2630      O2632   1.274       .  A
C2630      O2644   1.268       .  A
C2630      C2675   1.473       .  S
O2631      C2659   1.274       .  A
O2631     Mg2633   2.319       .  S
O2632     Mg2664   2.300       .  S
Mg2633     O2639   2.134       .  S
Mg2633     O2647   2.240       .  S
Mg2633     O2635   2.271       .  S
C2634      O2672   1.265       .  A
C2634      O2640   1.267       .  A
C2634      C3264   1.481       .  S
O2635      C2642   1.270       .  A
H2636      C2649   1.081       .  S
C2637      O2651   1.234       .  S
C2637      O2652   1.270       .  A
C2637      H2662   1.081       .  S
O2638      C2661   1.270       .  A
O2639     Mg2653   2.180       .  S
O2640     Mg2670   2.279       .  S
C2641      O2654   1.267       .  A
C2641      O2646   1.277       .  A
C2641      C3073   1.468       .  S
C2642      O2669   1.276       .  A
C2642      C3095   1.479       .  S
Mg2643     O2650   2.140       .  S
Mg2643     O2651   2.130       .  S
Mg2643     O2644   2.266       .  S
Mg2643     O2645   2.320       .  S
Mg2643     O2672   2.255       .  S
O2645      C2649   1.275       .  A
O2646     Mg2653   2.329       .  S
O2648      C2668   1.277   1_565  A
O2648     Mg2664   2.327       .  S
O2650     Mg2664   2.166       .  S
O2650      C2661   1.235       .  S
O2651     Mg2670   2.156       .  S
O2652     Mg2664   2.309       .  S
Mg2653     O2669   2.312       .  S
O2654     Mg2670   2.227       .  S
H2655      C2660   1.081       .  S
O2656     Mg2664   2.153       .  S
O2656      C2659   1.238       .  S
H2657      C2659   1.082       .  S
H2658      C2661   1.082       .  S
O2663     Mg2670   2.295       .  S
C2666      O2671   1.268       .  A
C2666      C3257   1.480       .  S
C2673      C2674   1.399       .  A
C2673      C2678   1.410       .  A
C2674      H2693   1.086       .  S
C2674      C2675   1.400       .  A
C2675      C2676   1.411       .  A
C2676      C2677   1.421       .  A
C2676      C2683   1.406       .  A
C2677      C2678   1.421       .  A
C2677      C2682   1.418       .  A
C2678      C2679   1.404       .  A
C2679      H2689   1.083       .  S
C2679      C2680   1.393       .  A
C2680      H2690   1.082       .  S
C2680      C2681   1.407       .  A
C2681      C2682   1.419       .  A
C2681      C2688   1.415       .  A
C2682      C2685   1.418       .  A
C2683      H2691   1.083       .  S
C2683      C2684   1.394       .  A
C2684      H2692   1.083       .  S
C2684      C2685   1.405       .  A
C2685      C2686   1.411       .  A
C2686      C2786   1.466       .  S
C2686      C2687   1.399       .  A
C2687      H2694   1.086       .  S
C2687      C2688   1.394       .  A
C2688      C2796   1.476       .  S
O2695     Mg2697   2.150   1_556  S
O2695      C2730   1.238       .  S
C2696      O2709   1.231       .  S
C2696      O2733   1.265       .  A
C2696      H2735   1.081       .  S
Mg2697     O2741   2.304       .  S
Mg2697     O2737   2.241       .  S
Mg2697     O2708   2.299       .  S
O2698      C2719   1.239       .  S
O2699      C2730   1.275       .  A
C2700      O2702   1.272       .  A
C2700      O2714   1.264       .  A
O2701      C2729   1.276       .  A
O2701     Mg2703   2.318   1_554  S
O2702     Mg2734   2.313       .  S
Mg2703     O2709   2.142       .  S
Mg2703     O2717   2.242       .  S
Mg2703     O2705   2.261       .  S
C2704      O2742   1.264   1_556  A
C2704      C3247   1.474       .  S
O2705      C2712   1.264       .  A
H2706      C2719   1.082       .  S
C2707      O2721   1.237       .  S
C2707      O2722   1.275       .  A
C2707      H2732   1.081       .  S
O2708      C2731   1.267       .  A
O2709     Mg2723   2.145       .  S
O2710     Mg2740   2.301   1_545  S
C2711      O2724   1.271       .  A
C2711      O2716   1.278       .  A
C2711      C2909   1.474       .  S
C2712      O2739   1.270       .  A
C2712      C3027   1.465       .  S
Mg2713     O2720   2.143       .  S
Mg2713     O2714   2.270       .  S
Mg2713     O2715   2.312   1_554  S
Mg2713     O2742   2.224       .  S
O2715      C2719   1.274       .  A
O2716     Mg2723   2.336       .  S
O2717      C2736   1.265   1_556  A
O2718      C2738   1.277       .  A
O2718     Mg2734   2.333       .  S
O2720     Mg2734   2.142       .  S
O2720      C2731   1.232       .  S
O2721     Mg2740   2.154   1_554  S
Mg2723     O2739   2.289       .  S
O2724     Mg2740   2.249       .  S
H2725      C2730   1.081       .  S
O2726      C2729   1.240       .  S
H2727      C2729   1.081       .  S
H2728      C2731   1.081       .  S
O2733     Mg2740   2.294       .  S
C2736      C3234   1.481       .  S
O2737      C2738   1.270       .  A
O2743     Mg2745   2.146   1_556  S
O2743     Mg2751   2.145       .  S
O2743      C2778   1.231       .  S
C2744      O2757   1.236       .  S
C2744      O2781   1.270       .  A
C2744      H2783   1.081       .  S
Mg2745     O2774   2.144       .  S
Mg2745     O2789   2.269       .  S
Mg2745     O2785   2.222       .  S
Mg2745     O2756   2.289       .  S
O2746     Mg2788   2.153       .  S
O2746     Mg2771   2.161       .  S
O2746      C2767   1.238   1_556  S
O2747      C2778   1.264       .  A
O2747     Mg2771   2.291       .  S
C2748      O2750   1.276       .  A
C2748      O2762   1.275       .  A
O2749      C2777   1.275       .  A
O2749     Mg2751   2.321       .  S
O2750     Mg2782   2.293       .  S
Mg2751     O2757   2.140       .  S
Mg2751     O2765   2.273       .  S
Mg2751     O2753   2.318       .  S
C2752      O2790   1.269       .  A
C2752      O2758   1.270   1_554  A
C2752      C3217   1.481       .  S
O2753      C2760   1.277       .  A
H2754      C2767   1.081       .  S
C2755      O2769   1.231       .  S
C2755      O2770   1.264       .  A
C2755      H2780   1.082   1_554  S
O2756      C2779   1.270       .  A
O2757     Mg2771   2.184       .  S
O2758     Mg2788   2.283       .  S
C2759      O2772   1.266       .  A
C2759      O2764   1.276       .  A
C2759      C2889   1.471       .  S
C2760      O2787   1.277       .  A
C2760      C3029   1.485       .  S
Mg2761     O2768   2.127       .  S
Mg2761     O2769   2.148       .  S
Mg2761     O2762   2.307       .  S
Mg2761     O2763   2.315       .  S
Mg2761     O2790   2.249       .  S
O2763      C2767   1.274       .  A
O2764     Mg2771   2.316       .  S
O2765      C2784   1.271       .  A
O2766      C2786   1.273       .  A
O2766     Mg2782   2.302       .  S
O2768     Mg2782   2.179       .  S
O2768      C2779   1.238       .  S
O2769     Mg2788   2.141   1_554  S
O2770     Mg2782   2.287       .  S
Mg2771     O2787   2.291       .  S
O2772     Mg2788   2.224       .  S
H2773      C2778   1.082   1_554  S
O2774     Mg2782   2.157       .  S
O2774      C2777   1.238   1_554  S
H2775      C2777   1.081       .  S
H2776      C2779   1.081       .  S
O2781     Mg2788   2.292       .  S
C2784      O2789   1.266   1_556  A
C2784      C3227   1.474       .  S
O2785      C2786   1.266       .  A
O2791     Mg2793   2.143   1_556  S
O2791      C2826   1.230       .  S
C2792      O2805   1.237   1_655  S
C2792      O2829   1.270       .  A
C2792      H2831   1.081       .  S
Mg2793     O2804   2.291       .  S
O2794     Mg2819   2.148       .  S
O2794      C2815   1.237   1_556  S
O2795      C2826   1.264       .  A
O2795     Mg2819   2.289       .  S
C2796      O2798   1.273       .  A
C2796      O2810   1.274       .  A
O2797      C2825   1.274       .  A
O2797     Mg2799   2.320       .  S
O2798     Mg2830   2.271       .  S
Mg2799     O2805   2.140   1_655  S
Mg2799     O2813   2.274       .  S
C2800      O2838   1.269       .  A
C2800      O2806   1.268   1_554  A
C2800      C3204   1.477       .  S
O2801      C2808   1.276       .  A
H2802      C2815   1.082       .  S
C2803      O2817   1.231       .  S
C2803      O2818   1.264       .  A
C2803      H2828   1.081   1_554  S
O2804      C2827   1.270       .  A
C2807      O2820   1.265       .  A
C2807      O2812   1.272       .  A
C2807      C2911   1.466       .  S
C2808      O2835   1.273       .  A
C2808      C2887   1.477       .  S
Mg2809     O2816   2.128       .  S
Mg2809     O2817   2.148       .  S
Mg2809     O2810   2.292       .  S
O2811      C2815   1.272       .  A
O2812     Mg2819   2.300       .  S
O2813      C2832   1.271       .  A
O2814      C2834   1.271       .  A
O2814     Mg2830   2.292       .  S
O2816     Mg2830   2.181       .  S
O2817     Mg2836   2.138   1_654  S
O2818     Mg2830   2.289       .  S
Mg2819     O2835   2.269       .  S
H2821      C2826   1.081   1_554  S
O2822     Mg2830   2.150       .  S
O2822      C2825   1.238   1_554  S
H2823      C2825   1.082       .  S
H2824      C2827   1.081       .  S
O2829     Mg2836   2.293   1_655  S
C2832      O2837   1.268   1_556  A
C2832      C3194   1.481       .  S
O2833      C2834   1.267       .  A
O2839     Mg2841   2.147       .  S
O2839     Mg2847   2.132       .  S
O2839      C2874   1.236       .  S
C2840      O2853   1.233       .  S
C2840      O2877   1.267       .  A
C2840      H2879   1.081       .  S
Mg2841     O2870   2.157       .  S
Mg2841     O2885   2.294       .  S
Mg2841     O2881   2.241       .  S
Mg2841     O2852   2.293       .  S
O2842     Mg2884   2.151       .  S
O2842     Mg2867   2.152       .  S
O2842      C2863   1.239       .  S
O2843      C2874   1.271       .  A
O2843     Mg2867   2.310       .  S
C2844      O2846   1.269       .  A
C2844      O2858   1.266       .  A
C2844      C3108   1.466       .  S
O2845      C2873   1.272       .  A
O2845     Mg2847   2.306       .  S
O2846     Mg2878   2.281       .  S
Mg2847     O2853   2.138       .  S
Mg2847     O2861   2.240       .  S
Mg2847     O2849   2.259       .  S
C2848      O2886   1.262   1_565  A
C2848      O2854   1.271       .  A
C2848      C3184   1.466       .  S
O2849      C2856   1.267       .  A
H2850      C2863   1.081       .  S
C2851      O2865   1.237       .  S
C2851      O2866   1.273       .  A
C2851      H2876   1.081       .  S
O2852      C2875   1.266       .  A
O2853     Mg2867   2.156       .  S
C2855      O2868   1.271       .  A
C2855      C2924   1.474       .  S
C2856      O2883   1.272       .  A
C2856      C2900   1.466       .  S
Mg2857     O2864   2.125       .  S
Mg2857     O2865   2.127       .  S
Mg2857     O2858   2.270       .  S
Mg2857     O2859   2.314       .  S
O2859      C2863   1.274       .  A
O2860     Mg2867   2.323       .  S
O2861      C2880   1.266       .  A
O2862      C2882   1.274       .  A
O2862     Mg2878   2.309       .  S
O2864     Mg2878   2.145       .  S
O2864      C2875   1.232       .  S
O2865     Mg2884   2.163       .  S
O2866     Mg2878   2.322       .  S
Mg2867     O2883   2.287       .  S
H2869      C2874   1.081       .  S
O2870     Mg2878   2.144       .  S
O2870      C2873   1.238       .  S
H2871      C2873   1.081       .  S
H2872      C2875   1.082       .  S
O2877     Mg2884   2.297       .  S
C2880      O2885   1.272       .  A
C2880      C3174   1.480       .  S
O2881      C2882   1.270       .  A
C2882      C3086   1.467       .  S
C2887      C2888   1.396       .  A
C2887      C2892   1.416       .  A
C2888      H2907   1.086       .  S
C2888      C2889   1.399       .  A
C2889      C2890   1.413       .  A
C2890      C2891   1.420       .  A
C2890      C2897   1.405       .  A
C2891      C2892   1.418       .  A
C2891      C2896   1.420       .  A
C2892      C2893   1.407       .  A
C2893      H2903   1.083       .  S
C2893      C2894   1.395       .  A
C2894      H2904   1.082       .  S
C2894      C2895   1.406       .  A
C2895      C2896   1.422       .  A
C2895      C2902   1.418       .  A
C2896      C2899   1.418       .  A
C2897      H2905   1.083       .  S
C2897      C2898   1.393       .  A
C2898      H2906   1.083       .  S
C2898      C2899   1.405       .  A
C2899      C2900   1.409       .  A
C2900      C2901   1.399       .  A
C2901      H2908   1.086       .  S
C2901      C2902   1.397       .  A
C2909      C2910   1.396       .  A
C2909      C2914   1.415       .  A
C2910      H2929   1.086       .  S
C2910      C2911   1.400       .  A
C2911      C2912   1.409       .  A
C2912      C2913   1.418       .  A
C2912      C2919   1.405       .  A
C2913      C2914   1.419       .  A
C2913      C2918   1.418       .  A
C2914      C2915   1.406       .  A
C2915      H2925   1.083       .  S
C2915      C2916   1.397       .  A
C2916      H2926   1.083       .  S
C2916      C2917   1.406       .  A
C2917      C2918   1.419       .  A
C2917      C2924   1.415       .  A
C2918      C2921   1.418       .  A
C2919      H2927   1.083       .  S
C2919      C2920   1.391       .  A
C2920      C2921   1.405       .  A
C2921      C2922   1.409       .  A
C2922      C2923   1.400       .  A
C2923      H2930   1.086       .  S
C2923      C2924   1.395       .  A
O2931     Mg2933   2.141       .  S
O2931     Mg2939   2.148       .  S
O2931      C2966   1.230       .  S
C2932      O2945   1.237       .  S
C2932      O2969   1.271       .  A
C2932      H2971   1.081       .  S
Mg2933     O2962   2.146       .  S
Mg2933     O2973   2.221       .  S
Mg2933     O2944   2.293       .  S
O2934     Mg2976   2.145       .  S
O2934     Mg2959   2.153       .  S
O2934      C2955   1.237       .  S
O2935      C2966   1.264       .  A
O2935     Mg2959   2.288       .  S
C2936      O2938   1.276       .  A
C2936      O2950   1.275       .  A
C2936      C3106   1.482       .  S
O2937      C2965   1.274       .  A
O2937     Mg2939   2.322       .  S
O2938     Mg2970   2.285       .  S
Mg2939     O2945   2.138       .  S
C2940      O2978   1.271       .  A
C2940      O2946   1.269       .  A
C2940      C3154   1.485       .  S
H2942      C2955   1.081       .  S
C2943      O2957   1.231       .  S
C2943      O2958   1.264       .  A
C2943      H2968   1.082       .  S
O2944      C2967   1.271       .  A
O2945     Mg2959   2.183       .  S
C2947      O2960   1.266       .  A
C2947      O2952   1.272       .  A
C2948      O2975   1.274   1_455  A
Mg2949     O2956   2.140       .  S
Mg2949     O2957   2.147       .  S
Mg2949     O2950   2.305       .  S
Mg2949     O2951   2.313       .  S
O2951      C2955   1.273       .  A
O2952     Mg2959   2.296       .  S
O2953      C2972   1.270       .  A
O2954      C2974   1.274       .  A
O2954     Mg2970   2.306       .  S
O2956     Mg2970   2.182       .  S
O2956      C2967   1.237       .  S
O2957     Mg2976   2.142       .  S
O2958     Mg2970   2.289       .  S
Mg2959     O2975   2.270       .  S
O2960     Mg2976   2.229       .  S
H2961      C2966   1.082   1_455  S
O2962     Mg2970   2.159       .  S
O2962      C2965   1.238       .  S
H2963      C2965   1.081       .  S
H2964      C2967   1.081       .  S
O2969     Mg2976   2.294       .  S
C2972      O2977   1.267       .  A
C2972      C3164   1.472       .  S
O2973      C2974   1.266       .  A
C2974      C3062   1.469       .  S
O2979     Mg2981   2.136       .  S
O2979     Mg2987   2.145       .  S
O2979      C3014   1.231       .  S
C2980      O2993   1.237       .  S
C2980      O3017   1.270       .  A
C2980      H3019   1.081       .  S
Mg2981     O3010   2.142       .  S
Mg2981     O3025   2.279       .  S
Mg2981     O3021   2.226       .  S
Mg2981     O2992   2.296       .  S
O2982     Mg3024   2.150       .  S
O2982     Mg3007   2.159       .  S
O2982      C3003   1.236       .  S
O2983      C3014   1.264       .  A
O2983     Mg3007   2.287       .  S
C2984      O2986   1.276       .  A
C2984      O2998   1.274       .  A
C2984      C3064   1.480       .  S
O2985      C3013   1.275       .  A
O2985     Mg2987   2.321       .  S
O2986     Mg3018   2.291       .  S
Mg2987     O2993   2.145       .  S
Mg2987     O3001   2.282       .  S
Mg2987     O2989   2.299       .  S
C2988      O3026   1.272       .  A
C2988      O2994   1.271       .  A
C2988      C3137   1.491       .  S
O2989      C2996   1.275       .  A
H2990      C3003   1.082       .  S
C2991      O3005   1.232       .  S
C2991      O3006   1.265       .  A
C2991      H3016   1.081       .  S
O2992      C3015   1.271       .  A
O2993     Mg3007   2.189       .  S
C2995      O3008   1.265       .  A
C2995      O3000   1.274   1_455  A
C2996      O3023   1.276       .  A
C2996      C3040   1.479       .  S
Mg2997     O3004   2.146       .  S
Mg2997     O3005   2.153       .  S
Mg2997     O2998   2.291       .  S
Mg2997     O2999   2.309       .  S
O2999      C3003   1.271       .  A
O3000     Mg3007   2.303       .  S
O3001      C3020   1.271       .  A
O3002      C3022   1.275       .  A
O3002     Mg3018   2.316       .  S
O3004     Mg3018   2.183       .  S
O3004      C3015   1.237       .  S
O3005     Mg3024   2.136       .  S
O3006     Mg3018   2.291       .  S
Mg3007     O3023   2.285       .  S
O3008     Mg3024   2.212   1_455  S
H3009      C3014   1.081       .  S
O3010     Mg3018   2.161       .  S
O3010      C3013   1.238       .  S
H3011      C3013   1.082       .  S
H3012      C3015   1.081       .  S
O3017     Mg3024   2.294       .  S
C3020      O3025   1.269       .  A
C3020      C3147   1.479       .  S
O3021      C3022   1.266       .  A
C3022      C3084   1.469       .  S
C3027      C3028   1.399       .  A
C3027      C3032   1.408       .  A
C3028      H3047   1.086       .  S
C3028      C3029   1.398       .  A
C3029      C3030   1.422       .  A
C3030      C3031   1.422       .  A
C3030      C3037   1.407       .  A
C3031      C3032   1.418       .  A
C3031      C3036   1.420       .  A
C3032      C3033   1.406       .  A
C3033      H3043   1.083       .  S
C3033      C3034   1.390       .  A
C3034      H3044   1.083       .  S
C3034      C3035   1.403       .  A
C3035      C3036   1.419       .  A
C3035      C3042   1.409       .  A
C3036      C3039   1.420       .  A
C3037      H3045   1.082       .  S
C3037      C3038   1.397       .  A
C3038      H3046   1.082       .  S
C3038      C3039   1.407       .  A
C3039      C3040   1.419       .  A
C3040      C3041   1.396       .  A
C3041      H3048   1.086       .  S
C3041      C3042   1.398       .  A
C3049      C3050   1.393       .  A
C3049      C3054   1.420       .  A
C3050      H3069   1.086       .  S
C3050      C3051   1.393       .  A
C3051      C3052   1.414       .  A
C3052      C3053   1.417       .  A
C3052      C3059   1.407       .  A
C3053      C3054   1.418       .  A
C3054      C3055   1.407       .  A
C3055      H3065   1.083       .  S
C3056      H3066   1.083       .  S
C3056      C3057   1.408       .  A
C3057      C3058   1.420       .  A
C3057      C3064   1.421       .  A
C3058      C3061   1.419       .  A
C3059      H3067   1.083       .  S
C3060      H3068   1.083       .  S
C3060      C3061   1.404       .  A
C3061      C3062   1.411       .  A
C3062      C3063   1.399       .  A
C3063      H3070   1.086       .  S
C3063      C3064   1.396       .  A
C3071      C3072   1.398       .  A
C3071      C3076   1.409       .  A
C3072      H3091   1.086       .  S
C3072      C3073   1.393       .  A
C3073      C3074   1.415       .  A
C3074      C3075   1.418       .  A
C3074      C3081   1.408       .  A
C3075      C3076   1.420       .  A
C3075      C3080   1.418       .  A
C3076      C3077   1.403       .  A
C3077      H3087   1.083       .  S
C3077      C3078   1.392       .  A
C3078      H3088   1.083       .  S
C3078      C3079   1.407       .  A
C3079      C3080   1.417       .  A
C3079      C3086   1.410       .  A
C3080      C3083   1.420       .  A
C3081      H3089   1.083       .  S
C3081      C3082   1.397       .  A
C3082      H3090   1.083       .  S
C3082      C3083   1.404       .  A
C3083      C3084   1.414       .  A
C3084      C3085   1.399       .  A
C3085      H3092   1.086       .  S
C3085      C3086   1.392       .  A
C3093      C3094   1.399       .  A
C3093      C3098   1.407       .  A
C3094      H3113   1.086       .  S
C3094      C3095   1.403       .  A
C3095      C3096   1.416       .  A
C3096      C3097   1.422       .  A
C3096      C3103   1.405       .  A
C3097      C3098   1.422       .  A
C3098      C3099   1.403       .  A
C3099      H3109   1.083       .  S
C3100      H3110   1.083       .  S
C3100      C3101   1.404       .  A
C3101      C3102   1.419       .  A
C3101      C3108   1.407       .  A
C3102      C3105   1.421       .  A
C3103      H3111   1.083       .  S
C3104      H3112   1.082       .  S
C3104      C3105   1.409       .  A
C3105      C3106   1.422       .  A
C3106      C3107   1.398       .  A
C3107      H3114   1.086       .  S
C3107      C3108   1.397       .  A
C3115      C3197   1.478   1_554  S
C3116      C3214   1.480       .  S
C3118      C3119   1.408   1_455  A
C3119      C3224   1.477       .  S
C3119      C3120   1.409       .  A
C3120      C3237   1.484       .  S
C3121      C3254   1.484       .  S
C3121      C3122   1.411       .  A
C3121      C3126   1.414       .  A
C3122      C3307   1.481       .  S
C3122      C3123   1.410       .  A
C3123      C3287   1.483       .  S
C3123      C3124   1.415       .  A
C3124      C3267   1.489       .  S
C3124      C3125   1.413       .  A
C3125      C3294   1.479       .  S
C3125      C3126   1.411       .  A
C3126      C3274   1.488       .  S
C3127      C3187   1.475       .  S
C3127      C3128   1.410       .  A
C3127      C3132   1.408       .  A
C3128      C3157   1.484       .  S
C3128      C3129   1.410       .  A
C3129      C3144   1.482       .  S
C3129      C3130   1.411       .  A
C3130      C3177   1.482       .  S
C3130      C3131   1.412       .  A
C3131      C3167   1.479       .  S
C3131      C3132   1.408       .  A
C3132      C3134   1.487       .  S
C3133      C3134   1.404       .  A
C3133      C3138   1.399       .  A
C3133      F3140   1.358       .  S
C3134      C3135   1.400       .  A
C3135      C3136   1.399       .  A
C3135      F3142   1.357       .  S
C3136      C3137   1.416       .  A
C3136      F3141   1.358       .  S
C3137      C3138   1.410       .  A
C3138      F3139   1.358       .  S
C3143      C3144   1.399       .  A
C3143      C3148   1.395       .  A
C3143      F3150   1.357       .  S
C3144      C3145   1.405       .  A
C3145      C3146   1.401       .  A
C3145      F3152   1.358       .  S
C3146      C3147   1.407       .  A
C3146      F3151   1.358       .  S
C3147      C3148   1.412       .  A
C3148      F3149   1.358       .  S
C3153      C3154   1.408       .  A
C3153      C3158   1.397       .  A
C3153      F3160   1.358       .  S
C3154      C3155   1.416       .  A
C3155      C3156   1.399       .  A
C3155      F3162   1.358       .  S
C3156      C3157   1.400       .  A
C3156      F3161   1.357       .  S
C3157      C3158   1.403       .  A
C3158      F3159   1.358       .  S
C3163      C3164   1.404       .  A
C3163      C3168   1.398       .  A
C3163      F3170   1.358       .  S
C3164      C3165   1.411       .  A
C3165      C3166   1.394       .  A
C3165      F3172   1.358       .  S
C3166      C3167   1.399       .  A
C3166      F3171   1.358       .  S
C3167      C3168   1.405       .  A
C3168      F3169   1.358       .  S
C3173      C3174   1.407       .  A
C3173      C3178   1.396       .  A
C3173      F3180   1.358       .  S
C3174      C3175   1.413       .  A
C3175      C3176   1.398       .  A
C3175      F3182   1.358       .  S
C3176      C3177   1.401       .  A
C3176      F3181   1.357       .  S
C3177      C3178   1.404       .  A
C3178      F3179   1.357       .  S
C3183      C3184   1.410       .  A
C3183      C3188   1.391       .  A
C3183      F3190   1.359       .  S
C3184      C3185   1.402       .  A
C3185      C3186   1.398       .  A
C3185      F3192   1.357       .  S
C3186      C3187   1.405       .  A
C3186      F3191   1.358       .  S
C3187      C3188   1.398       .  A
C3188      F3189   1.358       .  S
C3193      C3194   1.407       .  A
C3193      C3198   1.397       .  A
C3193      F3200   1.358       .  S
C3195      C3196   1.396       .  A
C3195      F3202   1.358       .  S
C3196      F3201   1.357       .  S
C3197      C3198   1.404       .  A
C3198      F3199   1.358       .  S
C3203      C3204   1.413   1_556  A
C3203      C3208   1.395       .  A
C3203      F3210   1.358       .  S
C3205      C3206   1.397       .  A
C3205      F3212   1.358       .  S
C3206      F3211   1.358       .  S
C3207      C3208   1.399   1_554  A
C3208      F3209   1.357       .  S
C3213      C3214   1.403       .  A
C3213      C3218   1.397       .  A
C3213      F3220   1.358       .  S
C3214      C3215   1.400   1_554  A
C3215      C3216   1.396       .  A
C3215      F3222   1.356       .  S
C3216      C3217   1.413   1_556  A
C3216      F3221   1.358       .  S
C3217      C3218   1.409       .  A
C3218      F3219   1.358       .  S
C3223      C3224   1.399       .  A
C3223      C3228   1.396       .  A
C3223      F3230   1.358       .  S
C3224      C3225   1.404   1_554  A
C3225      C3226   1.396       .  A
C3225      F3232   1.357       .  S
C3226      C3227   1.404       .  A
C3226      F3231   1.358       .  S
C3227      C3228   1.413   1_556  A
C3228      F3229   1.358       .  S
C3233      C3238   1.398       .  A
C3233      F3240   1.358       .  S
C3234      C3235   1.407       .  A
C3235      C3236   1.399       .  A
C3235      F3242   1.358       .  S
C3236      C3237   1.404       .  A
C3236      F3241   1.358       .  S
C3238      F3239   1.357       .  S
C3243      C3248   1.395       .  A
C3243      F3250   1.357       .  S
C3244      C3245   1.405   1_554  A
C3245      C3246   1.398       .  A
C3245      F3252   1.357       .  S
C3246      C3247   1.404       .  A
C3246      F3251   1.358       .  S
C3248      F3249   1.359       .  S
C3253      C3254   1.400       .  A
C3253      C3258   1.395       .  A
C3253      F3260   1.358       .  S
C3254      C3255   1.404       .  A
C3255      C3256   1.397       .  A
C3255      F3262   1.356       .  S
C3256      C3257   1.407       .  A
C3256      F3261   1.358       .  S
C3257      C3258   1.413       .  A
C3258      F3259   1.358       .  S
C3263      C3264   1.411       .  A
C3263      C3268   1.397       .  A
C3263      F3270   1.358       .  S
C3264      C3265   1.407       .  A
C3265      C3266   1.400       .  A
C3265      F3272   1.358       .  S
C3266      C3267   1.405       .  A
C3266      F3271   1.357       .  S
C3267      C3268   1.401       .  A
C3268      F3269   1.358       .  S
C3273      C3274   1.408       .  A
C3273      C3278   1.402       .  A
C3273      F3280   1.357       .  S
C3274      C3275   1.402       .  A
C3275      C3276   1.396       .  A
C3275      F3282   1.358       .  S
C3276      C3277   1.407       .  A
C3276      F3281   1.358       .  S
C3277      C3278   1.404       .  A
C3278      F3279   1.357       .  S
C3283      C3284   1.406       .  A
C3283      C3288   1.393       .  A
C3283      F3290   1.358       .  S
C3284      C3285   1.407       .  A
C3285      C3286   1.402       .  A
C3285      F3292   1.358       .  S
C3286      C3287   1.406       .  A
C3286      F3291   1.357       .  S
C3287      C3288   1.402       .  A
C3288      F3289   1.358       .  S
C3293      C3294   1.399       .  A
C3293      C3298   1.393       .  A
C3293      F3300   1.357       .  S
C3294      C3295   1.403       .  A
C3295      C3296   1.399       .  A
C3295      F3302   1.357       .  S
C3296      C3297   1.409       .  A
C3296      F3301   1.358       .  S
C3297      C3298   1.412       .  A
C3298      F3299   1.358       .  S
C3303      C3304   1.409       .  A
C3303      C3308   1.403       .  A
C3303      F3310   1.358       .  S
C3304      C3305   1.410       .  A
C3305      C3306   1.393       .  A
C3305      F3312   1.358       .  S
C3306      C3307   1.400       .  A
C3306      F3311   1.356       .  S
C3307      C3308   1.404       .  A
C3308      F3309   1.358       .  S
