geometry optimzed in LAMMPS
_audit_creation_date              2020-11-30 
_audit_creation_method            'lammps2cif' 
_symmetry_space_group_name_H-M    'P1' 
_symmetry_Int_Tables_number       1 
_symmetry_cell_setting            triclinic 
loop_ 
_symmetry_equiv_pos_as_xyz 
  x,y,z 
_cell_length_a                    33.9025275 
_cell_length_b                    33.928963879956044 
_cell_length_c                    82.66770792681353 
_cell_angle_alpha                 90.28990046791712 
_cell_angle_beta                  89.8653737526663 
_cell_angle_gamma                 119.96924509314113 
loop_ 
_atom_site_label 
_atom_site_type_symbol 
_atom_site_fract_x 
_atom_site_fract_y 
_atom_site_fract_z 
_atom_site_charge 
O1          O  0.08717738  0.30128007  0.32659206    -0.87600
C2          C  0.19781427  0.38169922  0.29857994     0.88400
Mg3        Mg  0.07443407  0.32571165  0.34878586     1.58100
O4          O  0.20688776  0.29870947  0.32114495    -0.87400
O5          O  0.09826853  0.24642971  0.31818557    -0.74700
C6          C  0.27103329  0.42545589  0.38916309     0.93400
O7          O  0.13495824  0.40964581  0.32143700    -0.74500
O8          O  0.23488443  0.42739626  0.38705688    -0.82000
Mg9        Mg  0.10094157  0.34456522  0.30585877     1.58000
C10         C  0.33185841  0.33862409  0.34475338     0.93400
O11         O  0.06500384  0.28607229  0.28752803    -0.80300
H12         H  0.18526008  0.23397376  0.32704343    -0.05600
C13         C  0.27000872  0.42682496  0.34068753     0.88300
O14         O  0.10910927  0.29379436  0.36353804    -0.74800
O15         O  0.16456686  0.34551707  0.30293202    -0.87600
O16         O  0.31372866  0.33417152  0.33089265    -0.80400
C17         C  0.25990975  0.31581998  0.28236830     0.93500
C18         C  0.07514682  0.26334750  0.27773263     0.93300
Mg19       Mg  0.24695546  0.34420155  0.36117724     1.58000
O20         O  0.28330158  0.40441988  0.37934556    -0.80300
O21         O  0.21200268  0.27853208  0.34580301    -0.74500
O22         O  0.21745406  0.30224975  0.28238135    -0.80400
O23         O  0.03332301  0.34259747  0.30901243    -0.82100
O24         O  0.12807693  0.38358666  0.38463586    -0.80400
C25         C  0.20093816  0.26900328  0.33101882     0.87800
O26         O  0.18249547  0.34219086  0.36428091    -0.87500
O27         O  0.25907861  0.38620991  0.34024282    -0.87600
O28         O  0.24702288  0.44055084  0.34864427    -0.74700
Mg29       Mg  0.15982864  0.27967968  0.30108630     1.58000
O30         O  0.28483195  0.33403623  0.29471915    -0.82100
H31         H  0.04593564  0.23643049  0.33281779    -0.05800
O32         O  0.13845881  0.38803221  0.34597540    -0.87300
H33         H  0.15956817  0.45296385  0.34059783    -0.05600
H34         H  0.15436380  0.28261996  0.37583543    -0.05800
C35         C  0.14460749  0.41824512  0.33633194     0.87700
C36         C  0.07547936  0.26050738  0.32604060     0.88300
C37         C  0.14916662  0.30563358  0.36832732     0.88400
H38         H  0.29914979  0.45109417  0.33378711    -0.05800
O39         O  0.23793561  0.39349528  0.30321896    -0.74800
Mg40       Mg  0.18570969  0.40719096  0.36592743     1.58000
H41         H  0.19248719  0.40442922  0.29096018    -0.05800
C42         C  0.01437681  0.34805928  0.32144894     0.93400
O43         O  0.06079937  0.35139618  0.37209582    -0.82000
C44         C  0.08567756  0.37022957  0.38439171     0.93400
O45         O  0.11037703  0.25983417  0.27991094    -0.82000
Mg46       Mg  0.27120311  0.36057448  0.31804895     1.58200
O47         O  0.02986525  0.35036270  0.33570307    -0.80400
O48         O  0.31537747  0.34627047  0.35748693    -0.82000
C49         C  0.34432647  0.16041568  0.18278496     0.03000
C50         C  0.35108007  0.20510356  0.18368723     0.03000
C51         C  0.36591679  0.23294082  0.16993553    -0.17600
C52         C  0.37421225  0.21744359  0.15525494     0.03000
C53         C  0.36981046  0.17359901  0.15457230     0.03000
C54         C  0.35580757  0.14617105  0.16841088    -0.17600
H55         H  0.35422516  0.11351164  0.16798988     0.05000
H56         H  0.37240942  0.26750064  0.17089849     0.05000
C57         C  0.88629605  0.15570472  0.17459951     0.03000
C58         C  0.85011465  0.11146538  0.17102505     0.03000
C59         C  0.82674192  0.10170395  0.15639596    -0.17600
C60         C  0.83792955  0.13549538  0.14484412     0.03000
C61         C  0.87423885  0.17999328  0.14788269     0.03000
C62         C  0.89842971  0.18912514  0.16250982    -0.17600
H63         H  0.92703664  0.22284830  0.16439929     0.05000
H64         H  0.79875197  0.06767076  0.15409893     0.05000
O65         O  0.25538577  0.88030976  0.33332755    -0.87600
C66         C  0.15087046  0.84702646  0.36502415     0.88400
Mg67       Mg  0.26021733  0.91129962  0.31032904     1.58100
O68         O  0.14727297  0.75396871  0.34424410    -0.87400
O69         O  0.25519831  0.82102525  0.34368052    -0.74700
C70         C  0.05626661  0.78889311  0.27701386     0.93400
O71         O  0.19852503  0.93213394  0.33890337    -0.74500
O72         O  0.08939467  0.82959933  0.27724915    -0.82000
Mg73       Mg  0.24279991  0.91217735  0.35382614     1.58000
C74         C  0.01972808  0.65793716  0.32371926     0.93400
O75         O  0.28925915  0.90066178  0.37085466    -0.80300
H76         H  0.17507740  0.71605631  0.33817062    -0.05600
C77         C  0.06934710  0.80374848  0.32476298     0.88300
O78         O  0.22990631  0.84257170  0.29716339    -0.74800
O79         O  0.18483447  0.84707074  0.35960822    -0.87600
O80         O  0.03853790  0.67433012  0.33733571    -0.80400
C81         C  0.10425603  0.72393597  0.38429025     0.93500
C82         C  0.28358666  0.87337568  0.38229010     0.93300
Mg83       Mg  0.09779154  0.74723253  0.30477949     1.58000
O84         O  0.05211127  0.75980487  0.28756505    -0.80300
O85         O  0.14179211  0.72653619  0.31978651    -0.74500
O86         O  0.14533955  0.75635629  0.38322710    -0.80400
O87         O  0.30444911  0.98122899  0.34793312    -0.82100
O88         O  0.19564666  0.90548721  0.27597350    -0.80400
C89         C  0.15523980  0.73131432  0.33438206     0.87800
O90         O  0.15605924  0.81190182  0.29891444    -0.87500
O91         O  0.08552311  0.77830710  0.32556474    -0.87600
O92         O  0.08632597  0.83816482  0.31553834    -0.74700
Mg93       Mg  0.19799618  0.79162342  0.36270898     1.58000
O94         O  0.07639857  0.71236811  0.37253856    -0.82100
H95         H  0.30063989  0.86180407  0.32676932    -0.05800
O96         O  0.19394204  0.90417253  0.31462928    -0.87300
H97         H  0.16599164  0.94225386  0.32020264    -0.05600
H98         H  0.18531805  0.78251902  0.28655353    -0.05800
C99         C  0.18577247  0.92717306  0.32424622     0.87700
C100        C  0.27191587  0.85518063  0.33432511     0.88300
C101        C  0.18989743  0.81122083  0.29373986     0.88400
H102        H  0.04072373  0.79715993  0.33236956    -0.05800
O103        O  0.11099928  0.81488923  0.36188179    -0.74800
Mg104      Mg  0.14329304  0.86809838  0.29642091     1.58000
H105        H  0.15515687  0.87549784  0.37228512    -0.05800
C106        C  0.31875977  0.00182821  0.33453758     0.93400
O107        O  0.26560927  0.94464895  0.28630202    -0.82000
C108        C  0.23752778  0.93613766  0.27486201     0.93400
O109        O  0.25100388  0.83229747  0.38227706    -0.82000
Mg110      Mg  0.08071272  0.74624496  0.34849777     1.58200
O111        O  0.30084668  0.98304182  0.32108939    -0.80400
O112        O  0.03527893  0.67952593  0.31057726    -0.82000
O113        O  0.62546351  0.74293238  0.34276652    -0.87600
C114        C  0.71183524  0.85490787  0.36979914     0.88400
Mg115      Mg  0.64461463  0.73104441  0.31943269     1.58100
O116        O  0.62294064  0.86308823  0.35097549    -0.76600
O117        O  0.57293817  0.75454090  0.35337131    -0.74700
C118        C  0.73739747  0.92871092  0.28174032     0.93400
O119        O  0.73598787  0.79192230  0.34492146    -0.74500
O120        O  0.74139199  0.89382053  0.28347851    -0.82000
Mg121      Mg  0.67467814  0.75798116  0.36187310     1.58000
C122        C  0.65613101  0.98704145  0.32797050     0.93400
O123        O  0.62119845  0.72203250  0.38142767    -0.80300
H124        H  0.55673535  0.84087509  0.34749062    -0.05600
C125        C  0.74567966  0.92622606  0.32905870     0.88300
O126        O  0.60882224  0.76487247  0.30678926    -0.74800
O127        O  0.67522766  0.82130856  0.36592676    -0.87600
O128        O  0.65557374  0.97085217  0.34193227    -0.80400
C129        C  0.64850967  0.91511469  0.38984764     0.93500
C130        C  0.60132072  0.73251070  0.39225529     0.93300
Mg131      Mg  0.65820992  0.90152687  0.31059271     1.58000
O132        O  0.71403317  0.93794553  0.29153831    -0.80300
O133        O  0.59588614  0.86653941  0.32741019    -0.74500
O134        O  0.63703580  0.87322575  0.38945196    -0.80400
O135        O  0.67439439  0.69129682  0.35726713    -0.82100
O136        O  0.69794560  0.78727532  0.28357793    -0.80400
C137        C  0.59052679  0.85647019  0.34232818     0.87800
O138        O  0.65703181  0.83819928  0.30648522    -0.87500
O139        O  0.70530753  0.91589301  0.33016281    -0.87600
O140        O  0.75793756  0.90257433  0.32080560    -0.74700
Mg141      Mg  0.60988904  0.81598510  0.37042799     1.58000
O142        O  0.66293908  0.94022003  0.37740717    -0.82100
H143        H  0.55922800  0.70192790  0.33824563    -0.05800
O144        O  0.70676714  0.79479480  0.32185872    -0.87300
H145        H  0.77282572  0.81495151  0.32426572    -0.05600
H146        H  0.59571605  0.81079964  0.29607079    -0.05800
C147        C  0.73975803  0.80061598  0.32994660     0.87700
C148        C  0.58496944  0.73147524  0.34464176     0.88300
C149        C  0.61991564  0.80514078  0.30267926     0.88400
H150        H  0.77101076  0.95510771  0.33584922    -0.05800
O151        O  0.72149448  0.89498620  0.36595991    -0.74800
Mg152      Mg  0.72257949  0.84279535  0.30311042     1.58000
H153        H  0.73659480  0.85002384  0.37636645    -0.05800
C154        C  0.67725692  0.67366249  0.34398720     0.93400
O155        O  0.66601321  0.71862748  0.29495369    -0.82000
C156        C  0.68443339  0.74490446  0.28299501     0.93400
O157        O  0.59598030  0.76689357  0.39103236    -0.82000
Mg158      Mg  0.68471927  0.92787390  0.35314260     1.58200
O159        O  0.67373954  0.68887101  0.33032816    -0.80400
O160        O  0.65995937  0.96854454  0.31508778    -0.82000
C161        C  0.79184210  0.65568163  0.18362273     0.03000
C162        C  0.83386767  0.65606784  0.18430347     0.03000
C163        C  0.84950592  0.64410778  0.17032461    -0.17600
C164        C  0.82385052  0.63103965  0.15596596     0.03000
C165        C  0.78325554  0.63323596  0.15523135     0.03000
C166        C  0.76825977  0.64617925  0.16898711    -0.17600
H167        H  0.73725500  0.64801570  0.16836974     0.05000
H168        H  0.88200980  0.64531600  0.17052599     0.05000
O169        O  0.45358186  0.04180749  0.00523825    -0.87600
C170        C  0.48753611  0.96763180  0.03550217     0.88400
Mg171      Mg  0.41658396  0.01360409  0.98294687     1.58100
O172        O  0.57962593  0.05073057  0.01284166    -0.87400
O173        O  0.51861761  0.09837303  0.01373787    -0.74700
C174        C  0.52340927  0.91843774  0.94659175     0.93400
O175        O  0.39638370  0.93374930  0.01215481    -0.74500
O176        O  0.48393914  0.91345171  0.94842879    -0.82000
Mg177      Mg  0.42504098  0.00048623  0.02657784     1.58000
C178        C  0.66831145  0.01304914  0.99025677     0.93400
O179        O  0.44463707  0.06023285  0.04397022    -0.80300
H180        H  0.62054209  0.11535567  0.00624659    -0.05600
C181        C  0.51891083  0.92096232  0.99492355     0.88300
O182        O  0.48341802  0.04591428  0.96830038    -0.74800
O183        O  0.48914707  0.00257185  0.03041022    -0.87600
O184        O  0.65330321  0.01574859  0.00414091    -0.80400
C185        C  0.61514518  0.03861050  0.05221341     0.93500
C186        C  0.47642389  0.08396374  0.05394212     0.93300
Mg187      Mg  0.57606579  0.00257805  0.97351434     1.58000
O188        O  0.55583647  0.94154982  0.95644421    -0.80300
O189        O  0.60401632  0.06946653  0.98799443    -0.74500
O190        O  0.58495824  0.05058370  0.05190267    -0.80400
O191        O  0.35795028  0.99921627  0.02261991    -0.82100
O192        O  0.41520578  0.95033285  0.94904847    -0.80400
C193        C  0.60239384  0.07993872  0.00266255     0.87800
O194        O  0.51172532  0.00045148  0.96971678    -0.87500
O195        O  0.54734981  0.96196345  0.99484899    -0.87600
O196        O  0.48206947  0.90497044  0.98695867    -0.74700
Mg197      Mg  0.54872061  0.06956520  0.03210678     1.58000
O198        O  0.62258626  0.01983849  0.04015121    -0.82100
H199        H  0.47690536  0.10585335  0.99802125    -0.05800
O200        O  0.42105785  0.95306500  0.98743428    -0.87300
H201        H  0.37913538  0.88839580  0.99369951    -0.05600
H202        H  0.54109047  0.05758359  0.95668774    -0.05800
C203        C  0.39775781  0.92366181  0.99744903     0.87700
C204        C  0.48229923  0.08279544  0.00543005     0.88300
C205        C  0.51318690  0.03519339  0.96445974     0.88400
H206        H  0.52489760  0.89835163  0.00236206    -0.05800
O207        O  0.51727352  0.95699132  0.03156501    -0.74800
Mg208      Mg  0.45199326  0.93343958  0.96862430     1.58000
H209        H  0.45955880  0.94503246  0.04320611    -0.05800
C210        C  0.33324884  0.99192101  0.01015064     0.93400
O211        O  0.37808800  0.98376837  0.95911708    -0.82000
C212        C  0.38591395  0.96316689  0.94770719     0.93400
O213        O  0.51627203  0.08950562  0.05249477    -0.82000
Mg214      Mg  0.58391405  0.99012103  0.01690669     1.58200
O215        O  0.34672363  0.98885064  0.99597662    -0.80400
O216        O  0.64408228  0.00456776  0.97755260    -0.82000
O217        O  0.54824547  0.58693455  0.99363432    -0.87600
C218        C  0.51888552  0.47928233  0.96392264     0.88400
Mg219      Mg  0.58232093  0.59487648  0.01613233     1.58100
O220        O  0.42446337  0.47097372  0.98499255    -0.87400
O221        O  0.48461856  0.57931420  0.98417640    -0.74700
C222        C  0.47575042  0.39706558  0.05214074     0.93400
O223        O  0.60903887  0.53871049  0.98747104    -0.74500
O224        O  0.51529875  0.42972475  0.04924607    -0.82000
Mg225      Mg  0.58035498  0.57614953  0.97293871     1.58000
C226        C  0.33298796  0.34447936  0.00673043     0.93400
O227        O  0.56064068  0.61641491  0.95592933    -0.80300
H228        H  0.38234812  0.49443528  0.99035510    -0.05600
C229        C  0.48152932  0.40067867  0.00350415     0.88300
O230        O  0.51461196  0.56172074  0.02998047    -0.74800
O231        O  0.51717689  0.51302325  0.96865395    -0.87600
O232        O  0.34744791  0.36274199  0.99290391    -0.80400
C233        C  0.39455312  0.42393445  0.94534132     0.93500
C234        C  0.53144459  0.60437196  0.94463238     0.93300
Mg235      Mg  0.42317914  0.42670352  0.02435362     1.58000
O236        O  0.44207865  0.38777546  0.04287444    -0.80300
O237        O  0.39629596  0.46511077  0.00918338    -0.74500
O238        O  0.42606545  0.46527668  0.94615927    -0.80400
O239        O  0.64600026  0.64306016  0.97809842    -0.82100
O240        O  0.58119264  0.53346514  0.04958613    -0.80400
C241        C  0.40009705  0.47733081  0.99451409     0.87800
O242        O  0.48708936  0.48821698  0.02829424    -0.87500
O243        O  0.45293629  0.41307089  0.00352306    -0.87600
O244        O  0.51857168  0.42225827  0.01127954    -0.74700
Mg245      Mg  0.45767268  0.51984577  0.96596266     1.58000
O246        O  0.38308407  0.39746266  0.95740577    -0.82100
H247        H  0.52512052  0.62854107  0.00020476    -0.05800
O248        O  0.57826150  0.53054165  0.01127351    -0.87300
H249        H  0.62296373  0.50990311  0.00645521    -0.05600
H250        H  0.45630435  0.51537877  0.04104157    -0.05800
C251        C  0.60444302  0.52599636  0.00207879     0.87700
C252        C  0.52005129  0.59981671  0.99292246     0.88300
C253        C  0.48491483  0.52121008  0.03356462     0.88400
H254        H  0.47568340  0.37185429  0.99612290    -0.05800
O255        O  0.48789545  0.43907342  0.96743707    -0.74800
Mg256      Mg  0.54688557  0.48069947  0.02964211     1.58000
H257        H  0.54775834  0.48408344  0.95681510    -0.05800
C258        C  0.66782647  0.65729076  0.99134236     0.93400
O259        O  0.61884680  0.60362838  0.03984073    -0.82000
C260        C  0.61038567  0.57544678  0.05117383     0.93400
O261        O  0.49218533  0.56940596  0.94564910    -0.82000
Mg262      Mg  0.41896750  0.40566440  0.98106549     1.58200
O263        O  0.65253273  0.63643232  0.00463012    -0.80400
O264        O  0.35636329  0.36117950  0.01956405    -0.82000
O265        O  0.04889999  0.46007273  0.99699170    -0.87600
C266        C  0.96566442  0.47911064  0.96637963     0.88400
Mg267      Mg  0.02633919  0.43008654  0.02057945     1.58100
O268        O  0.05107187  0.57849643  0.98519409    -0.87400
O269        O  0.10272673  0.52161685  0.98562247    -0.74700
C270        C  0.93334044  0.54134298  0.05552791     0.93400
O271        O  0.94066570  0.39933222  0.99303102    -0.74500
O272        O  0.92997359  0.50225022  0.05513159    -0.82000
Mg273      Mg  0.00442140  0.42344251  0.97701373     1.58000
C274        C  0.01451360  0.66983179  0.00520093     0.93400
O275        O  0.06278610  0.43907185  0.95871826    -0.80300
H276        H  0.11657879  0.62195940  0.99006656    -0.05600
C277        C  0.92524821  0.52157738  0.00722410     0.88300
O278        O  0.06063064  0.50040615  0.03289365    -0.74800
O279        O  0.00273169  0.48402198  0.97071686    -0.87600
O280        O  0.01557191  0.65190204  0.99174648    -0.80400
C281        C  0.02949564  0.60118874  0.94502202     0.93500
C282        C  0.08261090  0.46770503  0.94737362     0.93300
Mg283      Mg  0.01098085  0.58588441  0.02541781     1.58000
O284        O  0.95418252  0.57080276  0.04447994    -0.80300
O285        O  0.07410424  0.60974917  0.00910356    -0.74500
O286        O  0.04338883  0.57269326  0.94629573    -0.80400
O287        O  0.00534549  0.35905190  0.98351355    -0.82100
O288        O  0.96984633  0.43549951  0.05564554    -0.80400
C289        C  0.08190094  0.60433018  0.99444843     0.87800
O290        O  0.01222462  0.52511678  0.03169516    -0.87500
O291        O  0.96607109  0.54952792  0.00554385    -0.87600
O292        O  0.91184154  0.48835381  0.01688206    -0.74700
Mg293      Mg  0.06789458  0.54381011  0.96674903     1.58000
O294        O  0.01134976  0.61034456  0.95688677    -0.82100
H295        H  0.11454159  0.48607156  0.00275613    -0.05800
O296        O  0.96352106  0.43096331  0.01689968    -0.87300
H297        H  0.89801894  0.38750818  0.01198838    -0.05600
H298        H  0.07221211  0.55995355  0.04295557    -0.05800
C299        C  0.93273795  0.40502301  0.00764431     0.87700
C300        C  0.08960114  0.48865100  0.99540448     0.88300
C301        C  0.04892586  0.52967040  0.03628601     0.88400
H302        H  0.90046080  0.52487527  0.00003577    -0.05800
O303        O  0.95382674  0.50826380  0.96982852    -0.74800
Mg304      Mg  0.94662810  0.46541204  0.03544166     1.58000
H305        H  0.94213784  0.44854363  0.95989740    -0.05800
C306        C  0.00047752  0.33940630  0.99701670     0.93400
O307        O  0.00225765  0.39786863  0.04528177    -0.82000
C308        C  0.98335287  0.40672195  0.05693563     0.93400
O309        O  0.08492934  0.50636683  0.94730026    -0.82000
Mg310      Mg  0.98821175  0.57904967  0.98180371     1.58200
O311        O  0.99978120  0.35776659  0.01041632    -0.80400
O312        O  0.00932589  0.64958427  0.01862217    -0.82000
O313        O  0.29703872  0.07868382  0.67095115    -0.87600
C314        C  0.38021615  0.18584551  0.70064495     0.88400
Mg315      Mg  0.31844890  0.06984633  0.64730287     1.58100
O316        O  0.29259222  0.19539231  0.68155542    -0.87400
O317        O  0.24324055  0.08720915  0.68215454    -0.74700
C318        C  0.40862113  0.27137863  0.61251392     0.93400
O319        O  0.40645610  0.12841393  0.67416735    -0.74500
O320        O  0.41252769  0.23612423  0.61308674    -0.82000
Mg321      Mg  0.34395909  0.09097593  0.69057260     1.58000
C322        C  0.32533913  0.32002641  0.66061790     0.93400
O323        O  0.28860464  0.05145139  0.70958023    -0.80300
H324        H  0.22651209  0.17248391  0.67748487    -0.05600
C325        C  0.41731268  0.26296101  0.66003976     0.88300
O326        O  0.28258079  0.10428673  0.63518273    -0.74800
O327        O  0.34390303  0.15304693  0.69609501    -0.87600
O328        O  0.32491873  0.30207117  0.67414566    -0.80400
C329        C  0.31222203  0.24292831  0.72086414     0.93500
C330        C  0.26870924  0.06097840  0.72074063     0.93300
Mg331      Mg  0.33028493  0.23934858  0.64168697     1.58000
O332        O  0.38675383  0.28002297  0.62315008    -0.80300
O333        O  0.26715620  0.20108904  0.65793241    -0.74500
O334        O  0.30221585  0.20139698  0.72043770    -0.80400
O335        O  0.34394120  0.02555056  0.68466958    -0.82100
O336        O  0.36996917  0.13104434  0.61216049    -0.80400
C337        C  0.26075099  0.18927884  0.67268337     0.87800
O338        O  0.33009925  0.17756486  0.63634755    -0.87500
O339        O  0.37651550  0.25079346  0.66140885    -0.87600
O340        O  0.43080210  0.24191240  0.65089037    -0.74700
Mg341      Mg  0.27802742  0.14647360  0.70033111     1.58000
O342        O  0.32977772  0.26927610  0.70888308    -0.82100
H343        H  0.23120439  0.03764570  0.66577811    -0.05800
O344        O  0.38033145  0.13376070  0.65066131    -0.87300
H345        H  0.44635793  0.15572361  0.65438136    -0.05600
H346        H  0.26975733  0.15135587  0.62527483    -0.05800
C347        C  0.41233720  0.13953274  0.65936382     0.87700
C348        C  0.25629053  0.06628899  0.67272984     0.88300
C349        C  0.29354090  0.14498283  0.63183987     0.88400
H350        H  0.44197744  0.29130681  0.66721175    -0.05800
O351        O  0.39071993  0.22640583  0.69726966    -0.74800
Mg352      Mg  0.39574138  0.18386677  0.63240422     1.58000
H353        H  0.40406108  0.17982022  0.70732854    -0.05800
C354        C  0.34788810  0.00907356  0.67130348     0.93400
O355        O  0.34156870  0.06130583  0.62223561    -0.82000
C356        C  0.35717702  0.08912983  0.61047990     0.93400
O357        O  0.26336252  0.09541641  0.72011648    -0.82000
Mg358      Mg  0.35428915  0.25973375  0.68467627     1.58200
O359        O  0.34666208  0.02577979  0.65765716    -0.80400
O360        O  0.33043455  0.30436861  0.64729556    -0.82000
C361        C  0.15422723  0.33921425  0.84768339     0.03000
C362        C  0.19442803  0.33610285  0.84731723     0.03000
C363        C  0.20792071  0.32465827  0.83291209    -0.17600
C364        C  0.18138067  0.31359363  0.81894764     0.03000
C365        C  0.14046383  0.31534833  0.81908474     0.03000
C366        C  0.12719167  0.32776767  0.83359297    -0.17600
H367        H  0.09539272  0.32795612  0.83406574     0.05000
H368        H  0.23985318  0.32455625  0.83251080     0.05000
C369        C  0.19011352  0.84727812  0.84723915     0.03000
C370        C  0.14704456  0.80675531  0.84745996     0.03000
C371        C  0.12101935  0.79268814  0.83318608    -0.17600
C372        C  0.13491592  0.81945393  0.81919592     0.03000
C373        C  0.17592824  0.86180163  0.81948722     0.03000
C374        C  0.20368533  0.87430726  0.83327749    -0.17600
H375        H  0.23571600  0.90608610  0.83329892     0.05000
H376        H  0.08877018  0.76119639  0.83312532     0.05000
O377        O  0.90639156  0.22331665  0.67119451    -0.87600
C378        C  0.80419573  0.19466491  0.70337517     0.88400
Mg379      Mg  0.91046288  0.25382607  0.64803966     1.58100
O380        O  0.79613920  0.09911348  0.68323945    -0.87400
O381        O  0.90385430  0.16273146  0.68133061    -0.74700
C382        C  0.70711438  0.12783934  0.61546585     0.93400
O383        O  0.85188984  0.27652028  0.67680540    -0.74500
O384        O  0.74014476  0.16859837  0.61543688    -0.82000
Mg385      Mg  0.89633654  0.25626706  0.69184061     1.58000
C386        C  0.66928541  0.00050705  0.66444319     0.93400
O387        O  0.94326116  0.24399367  0.70912420    -0.80300
H388        H  0.82170950  0.05854321  0.67838496    -0.05600
C389        C  0.71917856  0.14869171  0.66315653     0.88300
O390        O  0.87876602  0.18396924  0.63540169    -0.74800
O391        O  0.83755729  0.19280955  0.69833424    -0.87600
O392        O  0.68679377  0.02093602  0.67773091    -0.80400
C393        C  0.75595326  0.07086862  0.72331994     0.93500
C394        C  0.93832612  0.21460165  0.71970013     0.93300
Mg395      Mg  0.74619694  0.08857319  0.64430398     1.58000
O396        O  0.70088576  0.10005711  0.62678830    -0.80300
O397        O  0.78952842  0.06813492  0.65945245    -0.74500
O398        O  0.79752892  0.10180912  0.72193009    -0.80400
O399        O  0.95832067  0.32288047  0.68509141    -0.82100
O400        O  0.84562897  0.24312680  0.61329403    -0.80400
C401        C  0.80278735  0.07424827  0.67404505     0.87800
O402        O  0.80508456  0.15304624  0.63801626    -0.87500
O403        O  0.73452190  0.12259994  0.66443464    -0.87600
O404        O  0.73677489  0.18237095  0.65358402    -0.74700
Mg405      Mg  0.84844719  0.13570165  0.70096175     1.58000
O406        O  0.72726006  0.06175317  0.71200497    -0.82100
H407        H  0.94894903  0.20191548  0.66407168    -0.05800
O408        O  0.84478775  0.24754329  0.65249946    -0.87300
H409        H  0.81777042  0.28621214  0.65851484    -0.05600
H410        H  0.83344679  0.12268131  0.62571089    -0.05800
C411        C  0.83760295  0.27093562  0.66229131     0.87700
C412        C  0.92124187  0.19674706  0.67192921     0.88300
C413        C  0.83852375  0.15198011  0.63263115     0.88400
H414        H  0.69080607  0.14339766  0.67066942    -0.05800
O415        O  0.76380482  0.16363684  0.70020049    -0.74800
Mg416      Mg  0.79357519  0.20953903  0.63438168     1.58000
H417        H  0.80954814  0.22416065  0.71023121    -0.05800
C418        C  0.97172208  0.34398729  0.67176700     0.93400
O419        O  0.91482300  0.28588774  0.62374130    -0.82000
C420        C  0.88690788  0.27521830  0.61208794     0.93400
O421        O  0.90401220  0.17450893  0.71963792    -0.82000
Mg422      Mg  0.73070808  0.09356072  0.68779435     1.58200
O423        O  0.95206497  0.32663695  0.65837044    -0.80400
O424        O  0.68385044  0.01990246  0.65083671    -0.82000
O425        O  0.74562553  0.63067446  0.66063435    -0.87600
C426        C  0.85408952  0.70313664  0.63067700     0.88400
Mg427      Mg  0.73847681  0.65753289  0.68319496     1.58100
O428        O  0.85675969  0.61503244  0.65219730    -0.87400
O429        O  0.74850657  0.57191679  0.65119214    -0.74700
C430        C  0.93814623  0.74039675  0.71953503     0.93400
O431        O  0.80033373  0.73924705  0.65498192    -0.74500
O432        O  0.90517665  0.74778095  0.71785845    -0.82000
Mg433      Mg  0.75940595  0.67392826  0.64005321     1.58000
C434        C  0.98102437  0.64383526  0.67436559     0.93400
O435        O  0.71660378  0.61558270  0.62273113    -0.80300
H436        H  0.82996967  0.54934080  0.65785057    -0.05600
C437        C  0.93218193  0.74273963  0.67121901     0.88300
O438        O  0.76902475  0.62020011  0.69686330    -0.74800
O439        O  0.81949014  0.66890584  0.63552193    -0.87600
O440        O  0.96390644  0.64193193  0.66044928    -0.80400
C441        C  0.90285577  0.62606586  0.61294635     0.93500
C442        C  0.72414695  0.59356290  0.61186517     0.93300
Mg443      Mg  0.90279487  0.65825369  0.69163089     1.58000
O444        O  0.94607572  0.71696615  0.70931595    -0.80300
O445        O  0.86119363  0.59296353  0.67656840    -0.74500
O446        O  0.86201882  0.61818895  0.61345794    -0.80400
O447        O  0.69503769  0.67702773  0.64503040    -0.82100
O448        O  0.80021348  0.71484602  0.71761348    -0.80400
C449        C  0.84877477  0.58434907  0.66188320     0.87800
O450        O  0.84308492  0.66370142  0.69586787    -0.87500
O451        O  0.91748375  0.70130088  0.67080838    -0.87600
O452        O  0.91292020  0.75978779  0.67959380    -0.74700
Mg453      Mg  0.80786787  0.60045422  0.63307985     1.58000
O454        O  0.93017277  0.64303377  0.62477713    -0.82100
H455        H  0.70046279  0.56699750  0.66705358    -0.05800
O456        O  0.80480303  0.71641333  0.67919244    -0.87300
H457        H  0.83064471  0.78222519  0.67391566    -0.05600
H458        H  0.81305338  0.60501317  0.70798292    -0.05800
C459        C  0.81235362  0.74736983  0.66969794     0.87700
C460        C  0.72994554  0.58912731  0.65985561     0.88300
C461        C  0.80888716  0.62905362  0.70069373     0.88400
H462        H  0.96133844  0.76488798  0.66388605    -0.05800
O463        O  0.89371554  0.71089793  0.63439448    -0.74800
Mg464      Mg  0.85407425  0.73189433  0.69791248     1.58000
H465        H  0.85055622  0.72753389  0.62336875    -0.05800
C466        C  0.67978119  0.68528481  0.65790546     0.93400
O467        O  0.73071371  0.68526720  0.70703898    -0.82000
C468        C  0.75843304  0.70380599  0.71866216     0.93400
O469        O  0.75716811  0.58590440  0.61273909    -0.82000
Mg470      Mg  0.92371289  0.67306381  0.64835183     1.58200
O471        O  0.69837588  0.68897186  0.67163072    -0.80400
O472        O  0.96578493  0.65279274  0.68708881    -0.82000
C473        C  0.63117482  0.83460186  0.84512719     0.03000
C474        C  0.63173915  0.79325436  0.84394568     0.03000
C475        C  0.64934674  0.78395503  0.82999697    -0.17600
C476        C  0.66465244  0.81404163  0.81687168     0.03000
C477        C  0.66146081  0.85406053  0.81760119     0.03000
C478        C  0.64558939  0.86419489  0.83185419    -0.17600
H479        H  0.64442237  0.89542898  0.83262379     0.05000
H480        H  0.65080839  0.75282210  0.82929585     0.05000
C481        C  0.99535333  0.47964277  0.48272627     0.03000
C482        C  0.00268534  0.52443823  0.48343165     0.03000
C483        C  0.99546279  0.54088362  0.49805443    -0.17600
C484        C  0.97978134  0.51318355  0.51183667     0.03000
C485        C  0.97485862  0.46914072  0.51136625     0.03000
C486        C  0.98209824  0.45279829  0.49670421    -0.17600
H487        H  0.97743255  0.41880096  0.49614305     0.05000
H488        H  0.00151049  0.57539129  0.49863161     0.05000
C489        C  0.49764789  0.53585464  0.49124317     0.03000
C490        C  0.45419787  0.49604507  0.49120630     0.03000
C491        C  0.44329521  0.46307707  0.50315709    -0.17600
C492        C  0.47497445  0.46886807  0.51507951     0.03000
C493        C  0.51809859  0.50903703  0.51534606     0.03000
C494        C  0.52888795  0.54212658  0.50343874    -0.17600
H495        H  0.56207600  0.57270519  0.50353238     0.05000
H496        H  0.41033663  0.43222845  0.50294912     0.05000
C497        C  0.52366005  0.00420990  0.48430305     0.03000
C498        C  0.48052269  0.00046770  0.48205603     0.03000
C499        C  0.46239749  0.01497478  0.49451535    -0.17600
C500        C  0.48402538  0.02904177  0.50964247     0.03000
C501        C  0.52516528  0.02869637  0.51229859     0.03000
C502        C  0.54461962  0.01690443  0.49952220    -0.17600
H503        H  0.57625450  0.01697750  0.50153113     0.05000
H504        H  0.43042838  0.01423131  0.49256043     0.05000
C505        C  0.99854021  0.95921218  0.01207119     0.03000
C506        C  0.03883835  0.00186163  0.01428848     0.03000
C507        C  0.03701705  0.04288368  0.01383348     0.03000
C508        C  0.99406598  0.04084776  0.01201875     0.03000
C509        C  0.95312338  0.99768930  0.01036217     0.03000
C510        C  0.95540257  0.95668688  0.01076148     0.03000
C511        C  0.70634287  0.32965843  0.32104081     0.03000
C512        C  0.70899188  0.37302459  0.32131920     0.03000
C513        C  0.66891761  0.37597827  0.32450904     0.03000
C514        C  0.62652809  0.33555039  0.32772902     0.03000
C515        C  0.62384048  0.29225539  0.32691456     0.03000
C516        C  0.66352372  0.28928651  0.32340473     0.03000
C517        C  0.36953508  0.65873664  0.66679793     0.03000
C518        C  0.37137155  0.70114607  0.66918055     0.03000
C519        C  0.33059389  0.70291670  0.67128621     0.03000
C520        C  0.28799524  0.66187916  0.67175401     0.03000
C521        C  0.28644600  0.61930790  0.67082830     0.03000
C522        C  0.32687564  0.61754158  0.66776772     0.03000
C523        C  0.18076422  0.66730042  0.66111161    -0.11200
C524        C  0.15645791  0.65329733  0.67565844     0.11400
C525        C  0.17524781  0.64210801  0.68892141    -0.03000
C526        C  0.21958005  0.64863986  0.68746418    -0.05700
C527        C  0.24411229  0.66255121  0.67284091    -0.16500
C528        C  0.22334670  0.67017141  0.65919269     0.02400
C529        C  0.11085702  0.64969582  0.67636289     0.12400
C530        C  0.14753810  0.62094726  0.70413857     0.63000
H531        H  0.23458411  0.64056037  0.69752474     0.12400
C532        C  0.24239993  0.67851041  0.64211611     0.55100
H533        H  0.16528455  0.67427578  0.65086922     0.08200
C534        C  0.10565149  0.68666488  0.68149688    -0.05600
C535        C  0.06191730  0.68159836  0.68159087    -0.06300
C536        C  0.02389013  0.64223803  0.67556742    -0.15900
C537        C  0.02922480  0.60568197  0.66984949    -0.01500
C538        C  0.07277647  0.60980592  0.67063597    -0.09100
C539        C  0.14666752  0.73267178  0.68528700     0.65200
H540        H  0.05749901  0.70973048  0.68543788     0.10700
C541        C  0.98914212  0.56223535  0.66340192     0.63600
H542        H  0.07772757  0.58222447  0.66652314     0.08000
F543        F  0.25207100  0.72128183  0.63718032    -0.19400
F544        F  0.20995027  0.64656867  0.63181071    -0.15700
F545        F  0.28125076  0.67531054  0.64057621    -0.19200
F546        F  0.10938401  0.57994680  0.70023620    -0.22500
F547        F  0.13378494  0.64929846  0.71102085    -0.24000
F548        F  0.17216177  0.61270261  0.71562050    -0.18000
F549        F  0.96978524  0.57167998  0.65040461    -0.20500
F550        F  0.95695369  0.54201710  0.67547694    -0.21700
F551        F  0.00209391  0.53151667  0.65818470    -0.18800
F552        F  0.13431900  0.76398733  0.69033724    -0.18900
F553        F  0.17237741  0.74894145  0.67140095    -0.22800
F554        F  0.17295945  0.72912559  0.69729944    -0.24400
C555        C  0.58588868  0.71518343  0.66332435    -0.11200
C556        C  0.54745188  0.67362606  0.65890915     0.11400
C557        C  0.55349197  0.63800873  0.65267919    -0.03000
C558        C  0.59772850  0.64424125  0.65204752    -0.05700
C559        C  0.63584709  0.68475697  0.65727924    -0.16500
C560        C  0.63029483  0.72141383  0.66256549     0.02400
C561        C  0.50121088  0.66807609  0.66105135     0.12400
C562        C  0.51340196  0.59350745  0.64678792     0.63000
H563        H  0.60285963  0.61687124  0.64780011     0.12400
C564        C  0.67110862  0.76687001  0.66711536     0.55100
H565        H  0.58071848  0.74243554  0.66768019     0.08200
C566        C  0.47880208  0.65748042  0.67621188    -0.05600
C567        C  0.43536866  0.65323990  0.67734032    -0.06300
C568        C  0.41317580  0.65838532  0.66385811    -0.15900
C569        C  0.43538229  0.66775951  0.64855478    -0.01500
C570        C  0.47911163  0.67272625  0.64752381    -0.09100
C571        C  0.50100000  0.65151281  0.69122200     0.65200
H572        H  0.41897322  0.64725477  0.68899633     0.10700
C573        C  0.41525040  0.67261617  0.63284433     0.63600
H574        H  0.49643352  0.68054185  0.63594190     0.08000
F575        F  0.68896571  0.76303896  0.68165143    -0.19400
F576        F  0.65947165  0.80044087  0.66870183    -0.15700
F577        F  0.70417768  0.78040524  0.65524514    -0.19200
F578        F  0.49398564  0.60156896  0.63345442    -0.22500
F579        F  0.48105498  0.57414177  0.65885641    -0.24000
F580        F  0.52652911  0.56235363  0.64231077    -0.18000
F581        F  0.44518680  0.71380686  0.62576080    -0.20500
F582        F  0.37408605  0.67093993  0.63481668    -0.21700
F583        F  0.40902516  0.63793017  0.62242502    -0.18800
F584        F  0.47126018  0.63593669  0.70421351    -0.18900
F585        F  0.53825494  0.69275852  0.69550107    -0.22800
F586        F  0.51510445  0.62030468  0.68828015    -0.24400
C587        C  0.73328906  0.78457508  0.78765037    -0.11200
C588        C  0.70623487  0.77301171  0.77369908     0.11400
C589        C  0.66645396  0.77678806  0.77373467    -0.03000
C590        C  0.65428519  0.79050113  0.78806861    -0.05700
C591        C  0.68098457  0.80142262  0.80210088    -0.16500
C592        C  0.72199995  0.79988691  0.80180340     0.02400
C593        C  0.71988266  0.75564767  0.75947892     0.12400
C594        C  0.63595181  0.76498951  0.75897253     0.63000
H595        H  0.62306462  0.79178766  0.78853798     0.12400
C596        C  0.75342869  0.81309719  0.81635942     0.55100
H597        H  0.76310078  0.78065261  0.78747877     0.08200
C598        C  0.75817000  0.78447598  0.74987296    -0.05600
C599        C  0.76999983  0.76521611  0.73704882    -0.06300
C600        C  0.74392335  0.71890499  0.73310872    -0.15900
C601        C  0.70493396  0.69018127  0.74239397    -0.01500
C602        C  0.69425627  0.70901883  0.75577276    -0.09100
C603        C  0.78562696  0.83552638  0.75273043     0.65200
H604        H  0.79933368  0.78663991  0.72961831     0.10700
C605        C  0.67519678  0.64009052  0.73833461     0.63600
H606        H  0.66544443  0.68756680  0.76339366     0.08000
F607        F  0.79660728  0.82232282  0.81187885    -0.19400
F608        F  0.73605861  0.77777294  0.82732131    -0.15700
F609        F  0.75786503  0.85167534  0.82381875    -0.19200
F610        F  0.61085228  0.71827330  0.75714726    -0.22500
F611        F  0.66169691  0.78389020  0.74520360    -0.24000
F612        F  0.60594500  0.78131880  0.76045102    -0.18000
F613        F  0.64215638  0.61742066  0.74999766    -0.20500
F614        F  0.70164440  0.61965264  0.73725995    -0.21700
F615        F  0.65344973  0.63535974  0.72372700    -0.18800
F616        F  0.81773605  0.85744241  0.74070681    -0.18900
F617        F  0.80833474  0.84476465  0.76732811    -0.22800
F618        F  0.75688394  0.85339142  0.75289081    -0.24400
C619        C  0.62302575  0.53812798  0.54083570    -0.11200
C620        C  0.60638546  0.53887792  0.55628012     0.11400
C621        C  0.56150850  0.53066767  0.55821789    -0.03000
C622        C  0.53452117  0.52172881  0.54440137    -0.05700
C623        C  0.55016565  0.51882797  0.52894027    -0.16500
C624        C  0.59540260  0.52719976  0.52703579     0.02400
C625        C  0.63781190  0.55155682  0.57012118     0.12400
C626        C  0.54263012  0.53272917  0.57470419     0.63000
H627        H  0.50090400  0.51772122  0.54552708     0.12400
C628        C  0.61680437  0.52552247  0.51105759     0.55100
H629        H  0.65798012  0.54568271  0.53959836     0.08200
C630        C  0.64414045  0.51922136  0.57872951    -0.05600
C631        C  0.67248705  0.53383086  0.59248156    -0.06300
C632        C  0.69520642  0.57967902  0.59730204    -0.15900
C633        C  0.69146431  0.61245446  0.58780561    -0.01500
C634        C  0.66205873  0.59749018  0.57446951    -0.09100
C635        C  0.62208315  0.47008757  0.57305306     0.65200
H636        H  0.67721206  0.50970276  0.59954206     0.10700
C637        C  0.71961582  0.66323428  0.59129735     0.63600
H638        H  0.65748238  0.62155873  0.56729814     0.08000
F639        F  0.63703658  0.49903596  0.51276483    -0.19400
F640        F  0.65001552  0.56912759  0.50692264    -0.15700
F641        F  0.58606573  0.50739116  0.49848848    -0.19200
F642        F  0.56599482  0.57673464  0.58062982    -0.22500
F643        F  0.54726774  0.50421501  0.58543400    -0.24000
F644        F  0.49684023  0.51943599  0.57392304    -0.18000
F645        F  0.71598082  0.68887989  0.57902001    -0.20500
F646        F  0.76509818  0.67590009  0.59272973    -0.21700
F647        F  0.70502957  0.67363689  0.60547028    -0.18800
F648        F  0.63113805  0.44379122  0.58347130    -0.18900
F649        F  0.63880262  0.46848040  0.55794118    -0.22800
F650        F  0.57538384  0.45113804  0.57202739    -0.24400
C651        C  0.91847163  0.55194412  0.58242731    -0.11200
C652        C  0.94217196  0.58319726  0.57013885     0.11400
C653        C  0.95339694  0.62925638  0.57190747    -0.03000
C654        C  0.94064008  0.64259897  0.58622961    -0.05700
C655        C  0.91739342  0.61127011  0.59854301    -0.16500
C656        C  0.90667405  0.56544883  0.59683522     0.02400
C657        C  0.95321166  0.56591116  0.55533779     0.12400
C658        C  0.97783439  0.66380921  0.55863458     0.63000
H659        H  0.94801409  0.67733666  0.58783112     0.12400
C660        C  0.88399489  0.53137288  0.61040187     0.55100
H661        H  0.90961035  0.51680680  0.58064983     0.08200
C662        C  0.98961311  0.55671888  0.55474626    -0.05600
C663        C  0.99771537  0.54025582  0.54020696    -0.06300
C664        C  0.96973539  0.53149507  0.52663109    -0.15900
C665        C  0.93220466  0.53905277  0.52747992    -0.01500
C666        C  0.92476272  0.55634848  0.54190780    -0.09100
C667        C  0.01935286  0.56380756  0.56942582     0.65200
H668        H  0.02568150  0.53350657  0.53934248     0.10700
C669        C  0.89958411  0.52829767  0.51339249     0.63600
H670        H  0.89644195  0.56253758  0.54288192     0.08000
F671        F  0.87657177  0.48861208  0.60623033    -0.19400
F672        F  0.84244148  0.52740978  0.61421647    -0.15700
F673        F  0.91168908  0.54605777  0.62391418    -0.19200
F674        F  0.94949319  0.65335929  0.54537850    -0.22500
F675        F  0.01685590  0.66334672  0.55406658    -0.24000
F676        F  0.99039621  0.70752830  0.56365977    -0.18000
F677        F  0.86179422  0.53138764  0.51780718    -0.20500
F678        F  0.88440128  0.48453336  0.50783513    -0.21700
F679        F  0.92124549  0.55872601  0.50098686    -0.18800
F680        F  0.05440046  0.55535186  0.56591032    -0.18900
F681        F  0.99348994  0.53457185  0.58164639    -0.22800
F682        F  0.03835266  0.60817730  0.57489469    -0.24400
C683        C  0.58175462  0.87422268  0.65861245    -0.11200
C684        C  0.54492587  0.87075641  0.66759456     0.11400
C685        C  0.55010344  0.90943152  0.67614438    -0.03000
C686        C  0.59168440  0.95062575  0.67491688    -0.05700
C687        C  0.62774197  0.95473536  0.66527152    -0.16500
C688        C  0.62290183  0.91589186  0.65700197     0.02400
C689        C  0.50110671  0.82650464  0.66756175     0.12400
C690        C  0.51181643  0.90760764  0.68634381     0.63000
H691        H  0.59614438  0.98052158  0.68131827     0.12400
C692        C  0.66111810  0.91820328  0.64675668     0.55100
H693        H  0.57766273  0.84393498  0.65263539     0.08200
C694        C  0.47261671  0.81017875  0.65372808    -0.05600
C695        C  0.43151450  0.76853339  0.65474369    -0.06300
C696        C  0.41655241  0.74412420  0.66925075    -0.15900
C697        C  0.44486639  0.76077862  0.68314546    -0.01500
C698        C  0.48729103  0.80092113  0.68183628    -0.09100
C699        C  0.48489423  0.83682628  0.63802472     0.65200
H700        H  0.41025871  0.75487783  0.64414857     0.10700
C701        C  0.43235163  0.73883370  0.69972042     0.63600
H702        H  0.50969602  0.81294745  0.69225107     0.08000
F703        F  0.66852936  0.94591285  0.63355866    -0.19400
F704        F  0.65099410  0.87569469  0.64107327    -0.15700
F705        F  0.70054021  0.93561286  0.65585555    -0.19200
F706        F  0.50432494  0.88064053  0.69976036    -0.22500
F707        F  0.47227910  0.88986388  0.67731729    -0.24000
F708        F  0.52196795  0.95033511  0.69177599    -0.18000
F709        F  0.46575747  0.72972114  0.70487028    -0.20500
F710        F  0.39116671  0.69874337  0.70006330    -0.21700
F711        F  0.43011126  0.76887874  0.71052824    -0.18800
F712        F  0.44959537  0.81768056  0.62693170    -0.18900
F713        F  0.52234029  0.83757930  0.63106734    -0.22800
F714        F  0.49464444  0.88093529  0.64101761    -0.24400
C715        C  0.06646825  0.46727559  0.67613688    -0.11200
C716        C  0.10435986  0.46253310  0.67238569     0.11400
C717        C  0.09808515  0.41917170  0.66843920    -0.03000
C718        C  0.05368600  0.38201948  0.66766560    -0.05700
C719        C  0.01584856  0.38652452  0.67142898    -0.16500
C720        C  0.02190064  0.42944722  0.67591149     0.02400
C721        C  0.15040211  0.50346078  0.67213763     0.12400
C722        C  0.13826584  0.41174492  0.66602991     0.63000
H723        H  0.04816356  0.34846425  0.66472703     0.12400
C724        C  0.98146199  0.43504667  0.68009597     0.55100
H725        H  0.07212593  0.50081345  0.67915752     0.08200
C726        C  0.16761383  0.53022382  0.65808102    -0.05600
C727        C  0.21271370  0.56620585  0.65814190    -0.06300
C728        C  0.24105745  0.57675059  0.67172443    -0.15900
C729        C  0.22330045  0.55045057  0.68601063    -0.01500
C730        C  0.17821977  0.51384884  0.68584144    -0.09100
C731        C  0.13826357  0.52121868  0.64313918     0.65200
H732        H  0.22589046  0.58752437  0.64760763     0.10700
C733        C  0.24914984  0.55949713  0.70182653     0.63600
H734        H  0.16442735  0.49311079  0.69657172     0.08000
F735        F  0.99488525  0.47892226  0.68515429    -0.19400
F736        F  0.95659583  0.40572206  0.69244881    -0.15700
F737        F  0.95394643  0.42522304  0.66661895    -0.19200
F738        F  0.16133396  0.42012721  0.68051129    -0.22500
F739        F  0.16744791  0.44070230  0.65434337    -0.24000
F740        F  0.12467024  0.36757203  0.66129975    -0.18000
F741        F  0.22445937  0.56496519  0.71410417    -0.20500
F742        F  0.29170554  0.59796241  0.70151132    -0.21700
F743        F  0.25420359  0.52248624  0.70543677    -0.18800
F744        F  0.16259772  0.54969117  0.63049568    -0.18900
F745        F  0.10244607  0.52825652  0.64679451    -0.22800
F746        F  0.12121674  0.47690001  0.63788730    -0.24400
C747        C  0.65803871  0.92420639  0.78230464    -0.11200
C748        C  0.70312257  0.94503974  0.77682564     0.11400
C749        C  0.73484524  0.93609099  0.78471618    -0.03000
C750        C  0.72021339  0.90716369  0.79823976    -0.05700
C751        C  0.67483320  0.88579919  0.80363369    -0.16500
C752        C  0.64280772  0.89346842  0.79526827     0.02400
C753        C  0.71602379  0.97688476  0.76299270     0.12400
C754        C  0.78360124  0.95638388  0.77873655     0.63000
H755        H  0.74413710  0.90076621  0.80467493     0.12400
C756        C  0.59258838  0.86912107  0.79971592     0.55100
H757        H  0.63463589  0.93225396  0.77625981     0.08200
C758        C  0.70248985  0.96128691  0.74695111    -0.05600
C759        C  0.71494428  0.99361955  0.73458608    -0.06300
C760        C  0.74147786  0.04062332  0.73763741    -0.15900
C761        C  0.75531946  0.05615530  0.75370832    -0.01500
C762        C  0.74111152  0.02378055  0.76619438    -0.09100
C763        C  0.67584526  0.91079970  0.74282962     0.65200
H764        H  0.70512163  0.98222200  0.72222661     0.10700
C765        C  0.78436690  0.10637909  0.75776333     0.63600
H766        H  0.75017704  0.03475020  0.77862815     0.08000
F767        F  0.56656183  0.87255024  0.78751779    -0.19400
F768        F  0.58623070  0.88816289  0.81357503    -0.15700
F769        F  0.57663386  0.82334676  0.80226463    -0.19200
F770        F  0.80614468  0.00320323  0.78022889    -0.22500
F771        F  0.78374925  0.94500485  0.76266572    -0.24000
F772        F  0.80767436  0.94053077  0.78743263    -0.18000
F773        F  0.78924172  0.11393936  0.77430049    -0.20500
F774        F  0.76440063  0.13002324  0.75156462    -0.21700
F775        F  0.82741451  0.12333027  0.75125662    -0.18800
F776        F  0.67012206  0.90329067  0.72630170    -0.18900
F777        F  0.63315512  0.89099168  0.74981093    -0.22800
F778        F  0.69868628  0.88947983  0.74851461    -0.24400
C779        C  0.64809972  0.06410695  0.57717924    -0.11200
C780        C  0.62312074  0.08532622  0.57304603     0.11400
C781        C  0.62347205  0.11878243  0.58354897    -0.03000
C782        C  0.65091354  0.13142225  0.59746160    -0.05700
C783        C  0.67666666  0.11096885  0.60134208    -0.16500
C784        C  0.67516182  0.07643822  0.59118065     0.02400
C785        C  0.59820129  0.07175483  0.55745053     0.12400
C786        C  0.59606274  0.14238041  0.58085333     0.63000
H787        H  0.65229111  0.15764146  0.60539745     0.12400
C788        C  0.70363928  0.05421228  0.59469954     0.55100
H789        H  0.64699047  0.03839842  0.56906350     0.08200
C790        C  0.61765792  0.09618027  0.54304106    -0.05600
C791        C  0.59235360  0.08100106  0.52862589    -0.06300
C792        C  0.54942065  0.04130400  0.52809479    -0.15900
C793        C  0.53219011  0.01450253  0.54225487    -0.01500
C794        C  0.55609553  0.03134256  0.55686589    -0.09100
C795        C  0.66537220  0.13727438  0.54287283     0.65200
H796        H  0.60596966  0.10003163  0.51756061     0.10700
C797        C  0.49072635  0.96711463  0.54258715     0.63600
H798        H  0.54266177  0.01176803  0.56786035     0.08000
F799        F  0.69920999  0.02361898  0.58270947    -0.19400
F800        F  0.69005981  0.03073423  0.60913493    -0.15700
F801        F  0.74914624  0.08720295  0.59572201    -0.19200
F802        F  0.56690932  0.13346836  0.59379614    -0.22500
F803        F  0.57029561  0.12850075  0.56691529    -0.24000
F804        F  0.62535079  0.18885551  0.57997054    -0.18000
F805        F  0.50248289  0.93735455  0.54949964    -0.20500
F806        F  0.47301527  0.95033749  0.52744358    -0.21700
F807        F  0.45727448  0.96765884  0.55190735    -0.18800
F808        F  0.67776427  0.15619390  0.52761340    -0.18900
F809        F  0.69633132  0.12439645  0.54769419    -0.22800
F810        F  0.66793287  0.17038866  0.55331046    -0.24400
C811        C  0.93610769  0.37490295  0.58270339    -0.11200
C812        C  0.92397224  0.35237630  0.56776690     0.11400
C813        C  0.90151331  0.30422090  0.56724106    -0.03000
C814        C  0.89017686  0.28001312  0.58196025    -0.05700
C815        C  0.90203402  0.30259230  0.59699325    -0.16500
C816        C  0.92542944  0.35099881  0.59738966     0.02400
C817        C  0.93543737  0.38083638  0.55297424     0.12400
C818        C  0.89037617  0.27874657  0.55122185     0.63000
H819        H  0.87234699  0.24317412  0.58185426     0.12400
C820        C  0.93785626  0.37766853  0.61319857     0.55100
H821        H  0.95385344  0.41175723  0.58271674     0.08200
C822        C  0.90674597  0.39678371  0.54709088    -0.05600
C823        C  0.92044492  0.42488509  0.53334189    -0.06300
C824        C  0.96287731  0.43964122  0.52596239    -0.15900
C825        C  0.99264710  0.42554048  0.53243552    -0.01500
C826        C  0.97772628  0.39530311  0.54559738    -0.09100
C827        C  0.86271314  0.38560167  0.55567620     0.65200
H828        H  0.89834644  0.43623137  0.52838977     0.10700
C829        C  0.03998827  0.44141579  0.52567972     0.63600
H830        H  0.99961006  0.38345242  0.55046051     0.08000
F831        F  0.90001937  0.36132920  0.62311789    -0.19400
F832        F  0.95370015  0.42350979  0.61070986    -0.15700
F833        F  0.97177513  0.37367113  0.62095206    -0.19200
F834        F  0.93027375  0.29028746  0.54302754    -0.22500
F835        F  0.86382744  0.28989009  0.54177693    -0.24000
F836        F  0.86687182  0.23206468  0.55339474    -0.18000
F837        F  0.06888833  0.44255323  0.53770986    -0.20500
F838        F  0.05928406  0.48479854  0.51933579    -0.21700
F839        F  0.03738246  0.41156922  0.51372379    -0.18800
F840        F  0.83826984  0.40152865  0.54726347    -0.18900
F841        F  0.87258325  0.40562168  0.57083860    -0.22800
F842        F  0.83532732  0.33910695  0.55737203    -0.24400
C843        C  0.97321875  0.75479972  0.76370728    -0.11200
C844        C  0.02053223  0.77504471  0.76239481     0.11400
C845        C  0.04129530  0.78607349  0.74692924    -0.03000
C846        C  0.01346532  0.77564029  0.73313554    -0.05700
C847        C  0.96601337  0.75590637  0.73445655    -0.16500
C848        C  0.94544943  0.74584774  0.75002339     0.02400
C849        C  0.04759502  0.78529070  0.77751452     0.12400
C850        C  0.09260865  0.80911147  0.74510547     0.63000
H851        H  0.02851895  0.78248468  0.72117576     0.12400
C852        C  0.89428415  0.72458490  0.75225816     0.55100
H853        H  0.95822645  0.74619888  0.77565951     0.08200
C854        C  0.05522941  0.82201733  0.78774331    -0.05600
C855        C  0.08298257  0.83108110  0.80142726    -0.06300
C856        C  0.10368638  0.80521263  0.80502525    -0.15900
C857        C  0.09534248  0.76785700  0.79494230    -0.01500
C858        C  0.06656215  0.75810159  0.78145831    -0.09100
C859        C  0.03404043  0.85140096  0.78428787     0.65200
H860        H  0.08892213  0.85874220  0.80946254     0.10700
C861        C  0.11771525  0.73932099  0.79799928     0.63600
H862        H  0.05921357  0.72954195  0.77363501     0.08000
F863        F  0.88061355  0.75473360  0.74722438    -0.19400
F864        F  0.88148013  0.71413165  0.76827740    -0.15700
F865        F  0.87169539  0.68473839  0.74335365    -0.19200
F866        F  0.10772532  0.77997571  0.74992194    -0.22500
F867        F  0.11291435  0.84787597  0.75460557    -0.24000
F868        F  0.10630257  0.82163292  0.72926719    -0.18000
F869        F  0.10316339  0.71682657  0.81256290    -0.20500
F870        F  0.16449741  0.76684929  0.79838678    -0.21700
F871        F  0.10716678  0.70688852  0.78601562    -0.18800
F872        F  0.05132519  0.88913737  0.79435519    -0.18900
F873        F  0.98753493  0.82637262  0.78667633    -0.22800
F874        F  0.04252548  0.86654807  0.76848156    -0.24400
C875        C  0.07320312  0.31714097  0.78207759    -0.11200
C876        C  0.05598925  0.27271199  0.77614234     0.11400
C877        C  0.06765410  0.24297986  0.78398312    -0.03000
C878        C  0.09355926  0.25775997  0.79828299    -0.05700
C879        C  0.11062441  0.30206132  0.80441587    -0.16500
C880        C  0.10109777  0.33277685  0.79598064     0.02400
C881        C  0.02571317  0.25807942  0.76167762     0.12400
C882        C  0.05330466  0.19608486  0.77711553     0.63000
H883        H  0.10101882  0.23471926  0.80478348     0.12400
C884        C  0.12096941  0.38206307  0.80127050     0.55100
H885        H  0.06444313  0.33951047  0.77569068     0.08200
C886        C  0.97793723  0.23823004  0.76315087    -0.05600
C887        C  0.95101260  0.22273099  0.74909982    -0.06300
C888        C  0.97033101  0.22887599  0.73361856    -0.15900
C889        C  0.01839401  0.25033731  0.73206958    -0.01500
C890        C  0.04529019  0.26413721  0.74624481    -0.09100
C891        C  0.95568316  0.23576172  0.77937770     0.65200
H892        H  0.91438488  0.20743740  0.75003318     0.10700
C893        C  0.04113687  0.25759296  0.71566314     0.63600
H894        H  0.08198562  0.27996544  0.74543398     0.08000
F895        F  0.10054491  0.38444780  0.81542603    -0.19400
F896        F  0.11413061  0.40748874  0.78973060    -0.15700
F897        F  0.16736916  0.40168617  0.80371226    -0.19200
F898        F  0.06979580  0.20013354  0.76153819    -0.22500
F899        F  0.00639726  0.16980497  0.77682208    -0.24000
F900        F  0.07003305  0.17348867  0.78619010    -0.18000
F901        F  0.03354792  0.28727785  0.70659478    -0.20500
F902        F  0.02361381  0.21644507  0.70758031    -0.21700
F903        F  0.08778481  0.27585333  0.71705612    -0.18800
F904        F  0.90864708  0.21299396  0.77823626    -0.18900
F905        F  0.97005772  0.27938462  0.78491439    -0.22800
F906        F  0.96741767  0.21331832  0.79058515    -0.24400
C907        C  0.30461260  0.50063570  0.65314683    -0.11200
C908        C  0.32084272  0.48722822  0.66633117     0.11400
C909        C  0.34034690  0.51698046  0.67965731    -0.03000
C910        C  0.34004860  0.55827215  0.67975966    -0.05700
C911        C  0.32468431  0.57248021  0.66643099    -0.16500
C912        C  0.30730417  0.54328334  0.65268259     0.02400
C913        C  0.32010136  0.44327942  0.66511273     0.12400
C914        C  0.36262436  0.50572058  0.69339799     0.63000
H915        H  0.35237047  0.58013166  0.69027947     0.12400
C916        C  0.29218569  0.55478380  0.63702698     0.55100
H917        H  0.29089774  0.47790243  0.64281620     0.08200
C918        C  0.28553783  0.40221516  0.67204309    -0.05600
C919        C  0.28778030  0.36233351  0.66987122    -0.06300
C920        C  0.32244560  0.36195446  0.66075498    -0.15900
C921        C  0.35648322  0.40273776  0.65355279    -0.01500
C922        C  0.35462261  0.44281401  0.65589990    -0.09100
C923        C  0.24552911  0.39788777  0.68171048     0.65200
H924        H  0.26209332  0.33097930  0.67541086     0.10700
C925        C  0.39505658  0.40426782  0.64367473     0.63600
H926        H  0.38022515  0.47441651  0.65051758     0.08000
F927        F  0.24682878  0.52337918  0.63426333    -0.19400
F928        F  0.31764860  0.55227348  0.62438032    -0.15700
F929        F  0.29732761  0.59765863  0.63699874    -0.19200
F930        F  0.39776817  0.50039004  0.68735811    -0.22500
F931        F  0.33117177  0.46589395  0.70084221    -0.24000
F932        F  0.38052952  0.53982802  0.70499463    -0.18000
F933        F  0.37767114  0.37943718  0.62958042    -0.20500
F934        F  0.41694403  0.38617852  0.65244601    -0.21700
F935        F  0.42720892  0.44831149  0.63947982    -0.18800
F936        F  0.24578206  0.38123666  0.69693142    -0.18900
F937        F  0.20555674  0.36741080  0.67396676    -0.22800
F938        F  0.24612683  0.43861941  0.68357245    -0.24400
C939        C  0.38610450  0.92098211  0.67245870    -0.11200
C940        C  0.34390838  0.88062493  0.67112995     0.11400
C941        C  0.30341410  0.88296396  0.67032710    -0.03000
C942        C  0.30658864  0.92583287  0.67024184    -0.05700
C943        C  0.34862981  0.96603116  0.67143454    -0.16500
C944        C  0.38907909  0.96397897  0.67274919     0.02400
C945        C  0.34250516  0.83606965  0.67104472     0.12400
C946        C  0.25701691  0.84027386  0.66997898     0.63000
H947        H  0.27604243  0.92838930  0.66947365     0.12400
C948        C  0.43473389  0.00708720  0.67451318     0.55100
H949        H  0.41660102  0.91851654  0.67333283     0.08200
C950        C  0.34733741  0.81622590  0.65664917    -0.05600
C951        C  0.34124673  0.77210334  0.65730698    -0.06300
C952        C  0.33273846  0.74809778  0.67191203    -0.15900
C953        C  0.32840743  0.76844467  0.68638282    -0.01500
C954        C  0.33345234  0.81215393  0.68561535    -0.09100
C955        C  0.35971425  0.84190277  0.64074604     0.65200
H956        H  0.34377987  0.75612292  0.64632536     0.10700
C957        C  0.31798819  0.74632344  0.70291491     0.63600
H958        H  0.32977527  0.82777302  0.69656655     0.08000
F959        F  0.44272264  0.03444308  0.66115087    -0.19400
F960        F  0.47006074  0.99791788  0.67583673    -0.15700
F961        F  0.43453801  0.03040966  0.68825874    -0.19200
F962        F  0.25066279  0.81642841  0.68415799    -0.22500
F963        F  0.25408189  0.81317610  0.65696746    -0.24000
F964        F  0.22211935  0.85009095  0.66865212    -0.18000
F965        F  0.35127976  0.77475166  0.71373066    -0.20500
F966        F  0.31605664  0.70478062  0.70309388    -0.21700
F967        F  0.27649599  0.74014220  0.70816408    -0.18800
F968        F  0.36132640  0.81582079  0.62810262    -0.18900
F969        F  0.40210969  0.88046761  0.64210974    -0.22800
F970        F  0.32799286  0.85459528  0.63688131    -0.24400
C971        C  0.20317381  0.96351828  0.79262858    -0.11200
C972        C  0.21166337  0.94885069  0.77780545     0.11400
C973        C  0.20930171  0.90609014  0.77672485    -0.03000
C974        C  0.19889723  0.87943428  0.79072393    -0.05700
C975        C  0.18977628  0.89361599  0.80554490    -0.16500
C976        C  0.19136185  0.93618823  0.80655157     0.02400
C977        C  0.22472706  0.97963152  0.76369368     0.12400
C978        C  0.22011134  0.88944780  0.76113460     0.63000
H979        H  0.19824636  0.84729839  0.79021062     0.12400
C980        C  0.18069997  0.95299478  0.82214646     0.55100
H981        H  0.20574522  0.99663330  0.79315273     0.08200
C982        C  0.19271296  0.98395326  0.75388608    -0.05600
C983        C  0.20829219  0.01060683  0.73983885    -0.06300
C984        C  0.25428802  0.03284557  0.73543362    -0.15900
C985        C  0.28653649  0.03044212  0.74564626    -0.01500
C986        C  0.27100653  0.00354667  0.75961132    -0.09100
C987        C  0.14202385  0.96100362  0.75729151     0.65200
H988        H  0.18418134  0.01377777  0.73213213     0.10700
C989        C  0.33729404  0.05738394  0.74209734     0.63600
H990        H  0.29489982  0.00042472  0.76742697     0.08000
F991        F  0.17378938  0.98930117  0.81937098    -0.19400
F992        F  0.21662815  0.96722991  0.83281874    -0.15700
F993        F  0.14164095  0.91883460  0.82925680    -0.19200
F994        F  0.26678102  0.91062143  0.75920597    -0.22500
F995        F  0.20153871  0.89901971  0.74788513    -0.24000
F996        F  0.20281450  0.84286402  0.76141035    -0.18000
F997        F  0.36278212  0.05326228  0.75434083    -0.20500
F998        F  0.35092129  0.10302676  0.74055637    -0.21700
F999        F  0.34676422  0.04195882  0.72792078    -0.18800
F1000       F  0.11849646  0.93154466  0.74471847    -0.18900
F1001       F  0.12914392  0.99374008  0.75825866    -0.22800
F1002       F  0.12943710  0.93666997  0.77150806    -0.24400
C1003       C  0.21878507  0.25425163  0.78835479    -0.11200
C1004       C  0.24302014  0.28953322  0.77732461     0.11400
C1005       C  0.24599226  0.33231337  0.77985092    -0.03000
C1006       C  0.22323888  0.33771584  0.79319067    -0.05700
C1007       C  0.19917742  0.30248079  0.80426400    -0.16500
C1008       C  0.19765563  0.26017342  0.80205240     0.02400
C1009       C  0.26408889  0.28029071  0.76306396     0.12400
C1010       C  0.27455769  0.37262208  0.76891811     0.63000
H1011       H  0.22512172  0.37011062  0.79537346     0.12400
C1012       C  0.17496554  0.22025237  0.81362834     0.55100
H1013       H  0.21667178  0.22166189  0.78630368     0.08200
C1014       C  0.30138081  0.27242189  0.76433528    -0.05600
C1015       C  0.31689192  0.26070913  0.75026409    -0.06300
C1016       C  0.29799488  0.25929350  0.73506321    -0.15900
C1017       C  0.26195484  0.26890015  0.73374047    -0.01500
C1018       C  0.24469926  0.27776804  0.74788422    -0.09100
C1019       C  0.32347195  0.27370602  0.78042687     0.65200
H1020       H  0.34369279  0.25223329  0.75108307     0.10700
C1021       C  0.24089590  0.26853521  0.71747479     0.63600
H1022       H  0.21543790  0.28250419  0.74723716     0.08000
F1023       F  0.20748447  0.21096823  0.81965446    -0.19400
F1024       F  0.14267237  0.18232320  0.80534597    -0.15700
F1025       F  0.15353122  0.22772293  0.82652511    -0.19200
F1026       F  0.25493588  0.36520752  0.75377056    -0.22500
F1027       F  0.31796121  0.37882768  0.76747230    -0.24000
F1028       F  0.27843389  0.41248885  0.77501210    -0.18000
F1029       F  0.20488620  0.27663531  0.71904275    -0.20500
F1030       F  0.22482096  0.22667350  0.71001894    -0.21700
F1031       F  0.27326072  0.30215121  0.70770429    -0.18800
F1032       F  0.36785243  0.28313791  0.77822961    -0.18900
F1033       F  0.29911193  0.23185211  0.78785822    -0.22800
F1034       F  0.32482916  0.30701183  0.79051540    -0.24400
C1035       C  0.45655022  0.08603971  0.54444662    -0.11200
C1036       C  0.41578751  0.04921395  0.55015276     0.11400
C1037       C  0.39461067  0.00810223  0.54124090    -0.03000
C1038       C  0.41789632  0.00347066  0.52791720    -0.05700
C1039       C  0.46038374  0.03921160  0.52284520    -0.16500
C1040       C  0.47861189  0.08228253  0.53058107     0.02400
C1041       C  0.39692405  0.05478362  0.56568943     0.12400
C1042       C  0.34721609  0.96992685  0.54549365     0.63000
H1043       H  0.40340891  0.97137029  0.52149449     0.12400
C1044       C  0.51970942  0.12553367  0.52453479     0.55100
H1045       H  0.47134177  0.11814866  0.55094549     0.08200
C1046       C  0.41134086  0.04653261  0.58075975    -0.05600
C1047       C  0.39477465  0.05550219  0.59505471    -0.06300
C1048       C  0.36610844  0.07412110  0.59479620    -0.15900
C1049       C  0.35180587  0.08272669  0.57978305    -0.01500
C1050       C  0.36711956  0.07227165  0.56538178    -0.09100
C1051       C  0.44393193  0.02816273  0.58189869     0.65200
H1052       H  0.40557395  0.04963939  0.60668256     0.10700
C1053       C  0.32119196  0.10343252  0.57899622     0.63600
H1054       H  0.35730470  0.07922937  0.55374997     0.08000
F1055       F  0.55406984  0.14110268  0.53591752    -0.19400
F1056       F  0.50767544  0.15856880  0.52237179    -0.15700
F1057       F  0.53632397  0.11984178  0.50996599    -0.19200
F1058       F  0.31640794  0.98494178  0.54348988    -0.22500
F1059       F  0.34556990  0.95659673  0.56134907    -0.24000
F1060       F  0.33385651  0.93212498  0.53569338    -0.18000
F1061       F  0.34540423  0.14867838  0.58358404    -0.20500
F1062       F  0.28437681  0.08039238  0.58925053    -0.21700
F1063       F  0.30460182  0.10115190  0.56352731    -0.18800
F1064       F  0.45893025  0.02978081  0.59757900    -0.18900
F1065       F  0.48185196  0.05327468  0.57236835    -0.22800
F1066       F  0.42201754  0.98338749  0.57688398    -0.24400
C1067       C  0.46268023  0.37240193  0.58400014    -0.11200
C1068       C  0.44173725  0.35077886  0.56943133     0.11400
C1069       C  0.41434877  0.30281683  0.56884427    -0.03000
C1070       C  0.40663915  0.27835501  0.58325119    -0.05700
C1071       C  0.42523230  0.30019704  0.59804477    -0.16500
C1072       C  0.45478184  0.34795758  0.59845082     0.02400
C1073       C  0.44785711  0.37939066  0.55512431     0.12400
C1074       C  0.39282949  0.27755249  0.55318043     0.63000
H1075       H  0.38454498  0.24176763  0.58318230     0.12400
C1076       C  0.47933494  0.37490109  0.61346626     0.55100
H1077       H  0.48479050  0.40903507  0.58413789     0.08200
C1078       C  0.42441127  0.40397791  0.55356836    -0.05600
C1079       C  0.43209561  0.43065824  0.53970445    -0.06300
C1080       C  0.46217317  0.43325054  0.52753089    -0.15900
C1081       C  0.48290574  0.40598088  0.52858410    -0.01500
C1082       C  0.47670489  0.38084356  0.54271027    -0.09100
C1083       C  0.39174760  0.40232708  0.56652180     0.65200
H1084       H  0.41627917  0.45146293  0.53857350     0.10700
C1085       C  0.51033649  0.40066890  0.51510870     0.63600
H1086       H  0.49409099  0.36151195  0.54395969     0.08000
F1087       F  0.46509676  0.40571983  0.61695078    -0.19400
F1088       F  0.52567853  0.39870928  0.61049497    -0.15700
F1089       F  0.47206093  0.34806946  0.62690394    -0.19200
F1090       F  0.42642102  0.28140089  0.54272255    -0.22500
F1091       F  0.36854551  0.29548100  0.54594394    -0.24000
F1092       F  0.36321081  0.23167817  0.55577432    -0.18000
F1093       F  0.55420408  0.41566660  0.52045593    -0.20500
F1094       F  0.51217242  0.42410322  0.50125975    -0.21700
F1095       F  0.49052689  0.35509643  0.51101700    -0.18800
F1096       F  0.37016903  0.42605426  0.56198407    -0.18900
F1097       F  0.41512600  0.42144898  0.58071825    -0.22800
F1098       F  0.35864415  0.35768695  0.56934741    -0.24400
C1099       C  0.03485216  0.24978210  0.00203347    -0.11200
C1100       C  0.99337075  0.20948862  0.99954655     0.11400
C1101       C  0.95381186  0.21208740  0.99585183    -0.03000
C1102       C  0.95742611  0.25520309  0.99485043    -0.05700
C1103       C  0.99892564  0.29522049  0.99740416    -0.16500
C1104       C  0.03852015  0.29277246  0.00077846     0.02400
C1105       C  0.99267459  0.16584060  0.00223814     0.12400
C1106       C  0.90689552  0.17116476  0.99318327     0.63000
H1107       H  0.92735617  0.25762291  0.99226860     0.12400
C1108       C  0.08446314  0.33559963  0.00293570     0.55100
H1109       H  0.06437728  0.24719909  0.00519738     0.08200
C1110       C  0.01022579  0.14741232  0.99083506    -0.05600
C1111       C  0.01036138  0.10707407  0.99470958    -0.06300
C1112       C  0.99299939  0.08427456  0.00947759    -0.15900
C1113       C  0.97400626  0.10245751  0.02065246    -0.01500
C1114       C  0.97486387  0.14318959  0.01683604    -0.09100
C1115       C  0.02761989  0.16980782  0.97451674     0.65200
H1116       H  0.02348276  0.09242281  0.98605916     0.10700
C1117       C  0.95202386  0.08133728  0.03667061     0.63600
H1118       H  0.96108709  0.15756843  0.02537786     0.08000
F1119       F  0.11888289  0.32578676  0.00572378    -0.19400
F1120       F  0.08293627  0.36057549  0.01594417    -0.15700
F1121       F  0.09525554  0.36174349  0.98909805    -0.19200
F1122       F  0.90579315  0.13001984  0.99404976    -0.22500
F1123       F  0.89110305  0.17406763  0.97807780    -0.24000
F1124       F  0.87783087  0.17164349  0.00480920    -0.18000
F1125       F  0.97265148  0.11281708  0.04899333    -0.20500
F1126       F  0.95509061  0.04356932  0.04042426    -0.21700
F1127       F  0.90657541  0.06919017  0.03612879    -0.18800
F1128       F  0.03977340  0.14451819  0.96464465    -0.18900
F1129       F  0.06536076  0.21236995  0.97658162    -0.22800
F1130       F  0.99414665  0.17447596  0.96672275    -0.24400
C1131       C  0.04584688  0.79359471  0.99897894    -0.11200
C1132       C  0.00976591  0.79404541  0.00719313     0.11400
C1133       C  0.97421448  0.75317930  0.01376015    -0.03000
C1134       C  0.97794397  0.71383465  0.01300842    -0.05700
C1135       C  0.01460018  0.71348718  0.00523183    -0.16500
C1136       C  0.04851979  0.75353870  0.99761776     0.02400
C1137       C  0.00986070  0.83771954  0.00855862     0.12400
C1138       C  0.93266164  0.75092988  0.02166721     0.63000
H1139       H  0.95181036  0.68262337  0.01845390     0.12400
C1140       C  0.08756774  0.75421338  0.98838140     0.55100
H1141       H  0.07198368  0.82504886  0.99368976     0.08200
C1142       C  0.02181425  0.86381158  0.02298944    -0.05600
C1143       C  0.01605800  0.90197205  0.02365664    -0.06300
C1144       C  0.00246986  0.91724150  0.01013734    -0.15900
C1145       C  0.99632320  0.89426269  0.99511696    -0.01500
C1146       C  0.99819312  0.85375841  0.99481246    -0.09100
C1147       C  0.04225799  0.85439627  0.03780589     0.65200
H1148       H  0.02289537  0.92048429  0.03493259     0.10700
C1149       C  0.99033657  0.91155499  0.97892179     0.63600
H1150       H  0.99144176  0.83484671  0.98356666     0.08000
F1151       F  0.11856649  0.79747576  0.98303706    -0.19400
F1152       F  0.07089429  0.72606121  0.97498697    -0.15700
F1153       F  0.11034746  0.73934194  0.99824621    -0.19200
F1154       F  0.91576788  0.77250599  0.01216244    -0.22500
F1155       F  0.94429787  0.77179406  0.03663813    -0.24000
F1156       F  0.89810174  0.70641701  0.02378816    -0.18000
F1157       F  0.02527421  0.91744685  0.96872959    -0.20500
F1158       F  0.99130264  0.95265660  0.97990831    -0.21700
F1159       F  0.94940455  0.87965689  0.97209298    -0.18800
F1160       F  0.01440776  0.84701667  0.05103642    -0.18900
F1161       F  0.08439959  0.89201072  0.04092353    -0.22800
F1162       F  0.04839363  0.81730243  0.03601729    -0.24400
C1163       C  0.05465440  0.64105360  0.90102918    -0.11200
C1164       C  0.07315301  0.68809417  0.90318531     0.11400
C1165       C  0.07290803  0.70557447  0.91873765    -0.03000
C1166       C  0.05527524  0.67517784  0.93179099    -0.05700
C1167       C  0.03954892  0.62839399  0.92993324    -0.16500
C1168       C  0.03839611  0.61072156  0.91420570     0.02400
C1169       C  0.09293976  0.71846620  0.88896404     0.12400
C1170       C  0.09312140  0.75637403  0.92167582     0.63000
H1171       H  0.05609012  0.68830723  0.94382131     0.12400
C1172       C  0.02048251  0.56036859  0.91124476     0.55100
H1173       H  0.05459034  0.62848935  0.88895203     0.08200
C1174       C  0.13737787  0.73234706  0.88325955    -0.05600
C1175       C  0.15382717  0.76133417  0.86978374    -0.06300
C1176       C  0.12821310  0.77829381  0.86229168    -0.15900
C1177       C  0.08445299  0.76596649  0.86858768    -0.01500
C1178       C  0.06692129  0.73464203  0.88137750    -0.09100
C1179       C  0.16705864  0.71606194  0.89118068     0.65200
H1180       H  0.18671859  0.77033456  0.86482871     0.10700
C1181       C  0.05569161  0.78552033  0.86229322     0.63600
H1182       H  0.03288595  0.72347139  0.88586360     0.08000
F1183       F  0.01392533  0.54960532  0.89492730    -0.19400
F1184       F  0.97910625  0.53483078  0.91897773    -0.15700
F1185       F  0.05130401  0.54842088  0.91701622    -0.19200
F1186       F  0.07028384  0.77278967  0.91261909    -0.22500
F1187       F  0.13854177  0.77919037  0.91734247    -0.24000
F1188       F  0.09023096  0.76612213  0.93776838    -0.18000
F1189       F  0.02742677  0.75803518  0.85007032    -0.20500
F1190       F  0.08251790  0.82928259  0.85654243    -0.21700
F1191       F  0.02880875  0.78758984  0.87452863    -0.18800
F1192       F  0.21057356  0.73726275  0.88473272    -0.18900
F1193       F  0.14793672  0.66971260  0.88889251    -0.22800
F1194       F  0.17084007  0.72525942  0.90758407    -0.24400
C1195       C  0.14515372  0.42826502  0.91870267    -0.11200
C1196       C  0.11825748  0.41837414  0.90470361     0.11400
C1197       C  0.08083371  0.42608251  0.90477513    -0.03000
C1198       C  0.07221304  0.44444054  0.91875840    -0.05700
C1199       C  0.09818058  0.45316743  0.93288236    -0.16500
C1200       C  0.13530871  0.44503568  0.93294721     0.02400
C1201       C  0.12882905  0.39860908  0.89024084     0.12400
C1202       C  0.04886574  0.41310059  0.89038479     0.63000
H1203       H  0.04353898  0.45021285  0.91903934     0.12400
C1204       C  0.16398242  0.45370167  0.94800155     0.55100
H1205       H  0.17324118  0.42161339  0.91849899     0.08200
C1206       C  0.16075981  0.42614426  0.87835901    -0.05600
C1207       C  0.16570768  0.40527801  0.86429173    -0.06300
C1208       C  0.14215788  0.35775159  0.86218049    -0.15900
C1209       C  0.10982679  0.33025792  0.87407803    -0.01500
C1210       C  0.10422438  0.35130533  0.88796144    -0.09100
C1211       C  0.19039222  0.47715843  0.88077738     0.65200
H1212       H  0.18901281  0.42603267  0.85488884     0.10700
C1213       C  0.07953636  0.27906418  0.87285542     0.63600
H1214       H  0.07962174  0.33049803  0.89707952     0.08000
F1215       F  0.20160466  0.44894852  0.94499233    -0.19400
F1216       F  0.13805852  0.42301423  0.95986723    -0.15700
F1217       F  0.17926484  0.49744734  0.95362561    -0.19200
F1218       F  0.02570816  0.36635477  0.88846988    -0.22500
F1219       F  0.07313739  0.43305256  0.87644730    -0.24000
F1220       F  0.01703262  0.42691952  0.89243396    -0.18000
F1221       F  0.08870034  0.25885573  0.88568351    -0.20500
F1222       F  0.08512264  0.26088350  0.85865521    -0.21700
F1223       F  0.03446970  0.26830871  0.87375209    -0.18800
F1224       F  0.21771693  0.49795629  0.86746571    -0.18900
F1225       F  0.21837017  0.48556264  0.89402476    -0.22800
F1226       F  0.16363837  0.49673926  0.88340133    -0.24400
C1227       C  0.13834385  0.16309503  0.02210513    -0.11200
C1228       C  0.16372942  0.17104342  0.00789753     0.11400
C1229       C  0.14838201  0.13648291  0.99593827    -0.03000
C1230       C  0.10609042  0.09645165  0.99820586    -0.05700
C1231       C  0.08089904  0.08774895  0.01263596    -0.16500
C1232       C  0.09798924  0.12175036  0.02494669     0.02400
C1233       C  0.20710544  0.21539393  0.00650864     0.12400
C1234       C  0.17730245  0.14077887  0.98125293     0.63000
H1235       H  0.09247398  0.07105689  0.98871171     0.12400
C1236       C  0.07615686  0.11718497  0.04131096     0.55100
H1237       H  0.15093722  0.18944141  0.03133780     0.08200
C1238       C  0.20850035  0.25480896  0.00015649    -0.05600
C1239       C  0.25017075  0.29644149  0.00026412    -0.06300
C1240       C  0.28937925  0.30036649  0.00756064    -0.15900
C1241       C  0.28742968  0.26110439  0.01443556    -0.01500
C1242       C  0.24641187  0.21912561  0.01354041    -0.09100
C1243       C  0.16557157  0.25302662  0.99396915     0.65200
H1244       H  0.25214937  0.32661551  0.99506697     0.10700
C1245       C  0.32847439  0.26345018  0.02277002     0.63600
H1246       H  0.24419840  0.18891203  0.01880807     0.08000
F1247       F  0.06161470  0.14857374  0.04247567    -0.19400
F1248       F  0.10797231  0.12642299  0.05333358    -0.15700
F1249       F  0.03987597  0.07440069  0.04404303    -0.19200
F1250       F  0.21819213  0.14527101  0.98627370    -0.22500
F1251       F  0.18612816  0.17840587  0.97222407    -0.24000
F1252       F  0.15605018  0.10287661  0.97128421    -0.18000
F1253       F  0.33750708  0.28844005  0.03691924    -0.20500
F1254       F  0.36616152  0.28381885  0.01274736    -0.21700
F1255       F  0.32112515  0.22070802  0.02671899    -0.18800
F1256       F  0.17391750  0.29475964  0.98824586    -0.18900
F1257       F  0.13426487  0.24014482  0.00639383    -0.22800
F1258       F  0.14698238  0.22182114  0.98152421    -0.24400
C1259       C  0.75270226  0.77970353  0.00151540    -0.11200
C1260       C  0.79369426  0.78307217  0.99641320     0.11400
C1261       C  0.79320918  0.74522054  0.98876858    -0.03000
C1262       C  0.75115598  0.70487636  0.98666187    -0.05700
C1263       C  0.71037356  0.70148160  0.99204409    -0.16500
C1264       C  0.71083440  0.73959338  0.99933830     0.02400
C1265       C  0.83582052  0.82689790  0.99962287     0.12400
C1266       C  0.83543329  0.74507382  0.98270178     0.63000
H1267       H  0.75029346  0.67540662  0.98113038     0.12400
C1268       C  0.66706107  0.73797740  0.00462879     0.55100
H1269       H  0.75390564  0.80904005  0.00728263     0.08200
C1270       C  0.85248664  0.86324535  0.98856269    -0.05600
C1271       C  0.89168772  0.90443430  0.99266789    -0.06300
C1272       C  0.91339348  0.91131011  0.00777817    -0.15900
C1273       C  0.89522494  0.87477922  0.01911678    -0.01500
C1274       C  0.85721841  0.83304204  0.01461595    -0.09100
C1275       C  0.82863682  0.85827505  0.97253430     0.65200
H1276       H  0.90593493  0.93175915  0.98396079     0.10700
C1277       C  0.91239561  0.87724294  0.03626987     0.63600
H1278       H  0.84319562  0.80502945  0.02311824     0.08000
F1279       F  0.67483655  0.77988026  0.01013584    -0.19400
F1280       F  0.64685807  0.70697922  0.01701116    -0.15700
F1281       F  0.63729975  0.72514870  0.99168629    -0.19200
F1282       F  0.83867879  0.71044494  0.99020320    -0.22500
F1283       F  0.87529883  0.78542978  0.98557362    -0.24000
F1284       F  0.83162699  0.73717551  0.96619953    -0.18000
F1285       F  0.87732619  0.86716059  0.04703425    -0.20500
F1286       F  0.94841657  0.91928823  0.04044160    -0.21700
F1287       F  0.92577643  0.84514173  0.03808092    -0.18800
F1288       F  0.84983148  0.89788987  0.96356478    -0.18900
F1289       F  0.78418365  0.84772320  0.97525974    -0.22800
F1290       F  0.82847836  0.82380404  0.96350712    -0.24400
C1291       C  0.59048884  0.65214723  0.90474241    -0.11200
C1292       C  0.56742678  0.67409876  0.89928748     0.11400
C1293       C  0.53111463  0.67192517  0.90852938    -0.03000
C1294       C  0.52027215  0.64909824  0.92344154    -0.05700
C1295       C  0.54513468  0.62939623  0.92928972    -0.16500
C1296       C  0.58038243  0.63018220  0.91976382     0.02400
C1297       C  0.58563696  0.70355714  0.88485813     0.12400
C1298       C  0.50441065  0.69403958  0.90271926     0.63000
H1299       H  0.49253433  0.64670335  0.93070913     0.12400
C1300       C  0.60722172  0.60787069  0.92541400     0.55100
H1301       H  0.61772970  0.65389629  0.89734865     0.08200
C1302       C  0.62644803  0.74610368  0.88570488    -0.05600
C1303       C  0.64101721  0.77352925  0.87186901    -0.06300
C1304       C  0.61570414  0.76031481  0.85749617    -0.15900
C1305       C  0.57484235  0.71773670  0.85663264    -0.01500
C1306       C  0.56084161  0.68965558  0.87037546    -0.09100
C1307       C  0.65500537  0.76247843  0.90104730     0.65200
H1308       H  0.67241638  0.80582264  0.87218774     0.10700
C1309       C  0.54589981  0.70204644  0.84139454     0.63600
H1310       H  0.53020419  0.65663304  0.86997366     0.08000
F1311       F  0.63342149  0.63111056  0.93869300    -0.19400
F1312       F  0.63612102  0.60814160  0.91349791    -0.15700
F1313       F  0.57778783  0.56305203  0.92958336    -0.19200
F1314       F  0.47856677  0.67070562  0.88939926    -0.22500
F1315       F  0.53397609  0.73860651  0.89847104    -0.24000
F1316       F  0.47539873  0.69399197  0.91454195    -0.18000
F1317       F  0.56767323  0.69080936  0.82963908    -0.20500
F1318       F  0.53865538  0.73608403  0.83561698    -0.21700
F1319       F  0.50372232  0.66417336  0.84424902    -0.18800
F1320       F  0.68636409  0.80855604  0.90041113    -0.18900
F1321       F  0.67845570  0.73921679  0.90297745    -0.22800
F1322       F  0.62780348  0.75521397  0.91446794    -0.24400
C1323       C  0.25893591  0.32533606  0.88300496    -0.11200
C1324       C  0.28440026  0.37078518  0.88792777     0.11400
C1325       C  0.28227917  0.40520090  0.87905389    -0.03000
C1326       C  0.25263918  0.39234336  0.86578939    -0.05700
C1327       C  0.22461523  0.34654555  0.86152077    -0.16500
C1328       C  0.22878306  0.31235109  0.86988303     0.02400
C1329       C  0.31201712  0.38110124  0.90275613     0.12400
C1330       C  0.31128010  0.45515615  0.88352522     0.63000
H1331       H  0.25177771  0.41811766  0.85842288     0.12400
C1332       C  0.20313599  0.26269780  0.86474565     0.55100
H1333       H  0.26289240  0.30006352  0.88963441     0.08200
C1334       C  0.29181154  0.37379979  0.91823974    -0.05600
C1335       C  0.32022584  0.38700916  0.93185989    -0.06300
C1336       C  0.36767782  0.40736704  0.93036268    -0.15900
C1337       C  0.38768689  0.41302396  0.91486863    -0.01500
C1338       C  0.35909942  0.39897777  0.90123687    -0.09100
C1339       C  0.24058431  0.35267288  0.92030971     0.65200
H1340       H  0.30566308  0.38272945  0.94384347     0.10700
C1341       C  0.43866648  0.43319169  0.91273682     0.63600
H1342       H  0.37334830  0.40296888  0.88921448     0.08000
F1343       F  0.15749845  0.24818304  0.86266033    -0.19400
F1344       F  0.20663591  0.23483515  0.87614987    -0.15700
F1345       F  0.22106110  0.25746883  0.85041771    -0.19200
F1346       F  0.35684135  0.46863153  0.88177396    -0.22500
F1347       F  0.30301381  0.46201751  0.89938257    -0.24000
F1348       F  0.30206176  0.48262014  0.87376365    -0.18000
F1349       F  0.45394462  0.41071127  0.92256795    -0.20500
F1350       F  0.46101402  0.47888364  0.91677372    -0.21700
F1351       F  0.44986215  0.42927858  0.89692096    -0.18800
F1352       F  0.22844021  0.35120309  0.93638583    -0.18900
F1353       F  0.21874379  0.30857251  0.91443449    -0.22800
F1354       F  0.22532644  0.37771450  0.91195420    -0.24400
C1355       C  0.79105309  0.04308036  0.99893122    -0.11200
C1356       C  0.79329427  0.00815974  0.99058630     0.11400
C1357       C  0.75581569  0.97740768  0.98094964    -0.03000
C1358       C  0.71731346  0.98305941  0.97995590    -0.05700
C1359       C  0.71379419  0.01612926  0.98922024    -0.16500
C1360       C  0.75170929  0.04719430  0.99867977     0.02400
C1361       C  0.83279382  0.00162914  0.99422108     0.12400
C1362       C  0.75501658  0.93676532  0.97285536     0.63000
H1363       H  0.68801082  0.95914408  0.97295514     0.12400
C1364       C  0.74990565  0.08235071  0.00957488     0.55100
H1365       H  0.81951602  0.06547011  0.00658692     0.08200
C1366       C  0.87247659  0.01864534  0.98450659    -0.05600
C1367       C  0.90917108  0.01394888  0.99002308    -0.06300
C1368       C  0.90959150  0.99645072  0.00540355    -0.15900
C1369       C  0.86918720  0.97845435  0.01494033    -0.01500
C1370       C  0.83155728  0.98080275  0.00896794    -0.09100
C1371       C  0.87874976  0.04261960  0.96845655     0.65200
H1372       H  0.93887341  0.02558496  0.98234728     0.10700
C1373       C  0.86292853  0.95707787  0.03148941     0.63600
H1374       H  0.80099062  0.96764453  0.01629447     0.08000
F1375       F  0.79305559  0.11659191  0.01374847    -0.19400
F1376       F  0.72692521  0.06150384  0.02362893    -0.15700
F1377       F  0.72812505  0.10236242  0.00192709    -0.19200
F1378       F  0.75719089  0.90897277  0.98456310    -0.22500
F1379       F  0.79167740  0.95101514  0.96253707    -0.24000
F1380       F  0.71569583  0.91127405  0.96391085    -0.18000
F1381       F  0.84932004  0.97897911  0.04241584    -0.20500
F1382       F  0.90187686  0.95949105  0.03740739    -0.21700
F1383       F  0.82930254  0.91182275  0.03062226    -0.18800
F1384       F  0.91976862  0.08309262  0.96853845    -0.18900
F1385       F  0.84473130  0.05256633  0.96519948    -0.22800
F1386       F  0.87985918  0.01549560  0.95612610    -0.24400
C1387       C  0.20678814  0.95581321  0.01106238    -0.11200
C1388       C  0.20911221  0.99778251  0.01416388     0.11400
C1389       C  0.25220820  0.03689439  0.01699949    -0.03000
C1390       C  0.29163038  0.03293799  0.01594723    -0.05700
C1391       C  0.28943958  0.99156968  0.01202020    -0.16500
C1392       C  0.24644081  0.95215287  0.00975726     0.02400
C1393       C  0.16598776  0.99988210  0.01408405     0.12400
C1394       C  0.25668592  0.08285537  0.02075974     0.63000
H1395       H  0.32488354  0.06258469  0.01783544     0.12400
C1396       C  0.24278950  0.90650607  0.00633288     0.55100
H1397       H  0.17353413  0.92599527  0.00939589     0.08200
C1398       C  0.14357775  0.99889942  0.99950486    -0.05600
C1399       C  0.10248795  0.99966037  0.00030038    -0.06300
C1400       C  0.08378566  0.00314532  0.01503776    -0.15900
C1401       C  0.10633981  0.00437704  0.02968926    -0.01500
C1402       C  0.14696255  0.00251172  0.02888430    -0.09100
C1403       C  0.16339012  0.99806048  0.98310731     0.65200
H1404       H  0.08427623  0.99746301  0.98929037     0.10700
C1405       C  0.08917472  0.00679824  0.04644434     0.63600
H1406       H  0.16387299  0.00258753  0.04000832     0.08000
F1407       F  0.19794406  0.87205868  0.00487071    -0.19400
F1408       F  0.26258591  0.89562377  0.01886013    -0.15700
F1409       F  0.26505808  0.90852162  0.99206065    -0.19200
F1410       F  0.23475472  0.08078208  0.03510487    -0.22500
F1411       F  0.23749807  0.09506024  0.00844308    -0.24000
F1412       F  0.30174285  0.11672228  0.02234282    -0.18000
F1413       F  0.08848200  0.97331688  0.05613873    -0.20500
F1414       F  0.04577231  0.00070199  0.04636234    -0.21700
F1415       F  0.11845946  0.04870425  0.05327092    -0.18800
F1416       F  0.13720406  0.99947725  0.97053900    -0.18900
F1417       F  0.16568258  0.95874564  0.98138434    -0.22800
F1418       F  0.20661840  0.03536409  0.98170489    -0.24400
C1419       C  0.32954090  0.96217624  0.90762655    -0.11200
C1420       C  0.30377462  0.91511115  0.90459363     0.11400
C1421       C  0.30558417  0.88439711  0.91569054    -0.03000
C1422       C  0.33261873  0.90192443  0.92963836    -0.05700
C1423       C  0.35740202  0.94881519  0.93291420    -0.16500
C1424       C  0.35597100  0.97963095  0.92180549     0.02400
C1425       C  0.27451851  0.89870184  0.88985441     0.12400
C1426       C  0.27899199  0.83331192  0.91283627     0.63000
H1427       H  0.33461659  0.87894353  0.93821500     0.12400
C1428       C  0.38289640  0.03049925  0.92481698     0.55100
H1429       H  0.32827741  0.98511152  0.89885216     0.08200
C1430       C  0.23163853  0.89638346  0.88917784    -0.05600
C1431       C  0.20517678  0.87939549  0.87504694    -0.06300
C1432       C  0.22002305  0.86435277  0.86176287    -0.15900
C1433       C  0.26274836  0.86621925  0.86247038    -0.01500
C1434       C  0.28958266  0.88405259  0.87650320    -0.09100
C1435       C  0.21367326  0.91119814  0.90342236     0.65200
H1436       H  0.17245283  0.87763097  0.87422037     0.10700
C1437       C  0.27971591  0.84886591  0.84861996     0.63600
H1438       H  0.32264730  0.88654409  0.87722246     0.08000
F1439       F  0.36721227  0.04104636  0.93870231    -0.19400
F1440       F  0.37880315  0.05471170  0.91213541    -0.15700
F1441       F  0.42851615  0.04422033  0.92668583    -0.19200
F1442       F  0.29538614  0.82236994  0.89923977    -0.22500
F1443       F  0.23345548  0.81915397  0.91062460    -0.24000
F1444       F  0.28252986  0.80948214  0.92576667    -0.18000
F1445       F  0.29071315  0.87741949  0.83546966    -0.20500
F1446       F  0.24654319  0.80554149  0.84407012    -0.21700
F1447       F  0.31813272  0.84691659  0.85293796    -0.18800
F1448       F  0.17077259  0.90494408  0.90039506    -0.18900
F1449       F  0.24247028  0.95683093  0.90666786    -0.22800
F1450       F  0.21087307  0.88613456  0.91694871    -0.24400
C1451       C  0.54829865  0.90491915  0.90288628    -0.11200
C1452       C  0.56756335  0.87696628  0.90437502     0.11400
C1453       C  0.57000571  0.86034636  0.91987500    -0.03000
C1454       C  0.55366204  0.87324983  0.93338002    -0.05700
C1455       C  0.53386705  0.90073960  0.93180930    -0.16500
C1456       C  0.53020745  0.91617126  0.91627394     0.02400
C1457       C  0.58322455  0.86525764  0.88923816     0.12400
C1458       C  0.58874469  0.82876971  0.92296761     0.63000
H1459       H  0.55655045  0.86186563  0.94532899     0.12400
C1460       C  0.50753098  0.94463285  0.91380002     0.55100
H1461       H  0.54679565  0.91720270  0.89096304     0.08200
C1462       C  0.55228711  0.83091359  0.87862456    -0.05600
C1463       C  0.56918191  0.82183507  0.86435596    -0.06300
C1464       C  0.61548893  0.84721606  0.86015221    -0.15900
C1465       C  0.64618919  0.88268667  0.87055958    -0.01500
C1466       C  0.62946594  0.89069208  0.88509548    -0.09100
C1467       C  0.50147594  0.80523936  0.88215094     0.65200
H1468       H  0.54612337  0.79545297  0.85616134     0.10700
C1469       C  0.69614787  0.91272064  0.86621708     0.63600
H1470       H  0.65218663  0.91758256  0.89323889     0.08000
F1471       F  0.46174683  0.91886688  0.91751718    -0.19400
F1472       F  0.51112943  0.95910178  0.89795716    -0.15700
F1473       F  0.52754565  0.98280212  0.92364180    -0.19200
F1474       F  0.62306785  0.84808137  0.93439902    -0.22500
F1475       F  0.60634085  0.81988530  0.90928128    -0.24000
F1476       F  0.55426219  0.78791164  0.92890402    -0.18000
F1477       F  0.70013697  0.94117999  0.85364789    -0.20500
F1478       F  0.71508009  0.88656021  0.86157223    -0.21700
F1479       F  0.72116447  0.93961093  0.87914298    -0.18800
F1480       F  0.47786314  0.76994154  0.87129870    -0.18900
F1481       F  0.48449288  0.83464748  0.88107245    -0.22800
F1482       F  0.49330821  0.78716414  0.89755699    -0.24400
C1483       C  0.83576921  0.55958696  0.12241628    -0.11200
C1484       C  0.87051669  0.59339197  0.11300097     0.11400
C1485       C  0.89065642  0.63950221  0.11795234    -0.03000
C1486       C  0.87545792  0.65005141  0.13236028    -0.05700
C1487       C  0.84048966  0.61620598  0.14175753    -0.16500
C1488       C  0.82114383  0.56993344  0.13695667     0.02400
C1489       C  0.88628194  0.57915579  0.09837601     0.12400
C1490       C  0.92762678  0.67737558  0.10794280     0.63000
H1491       H  0.89002354  0.68512781  0.13624426     0.12400
C1492       C  0.78621332  0.52994827  0.14676418     0.55100
H1493       H  0.82071083  0.52438216  0.11856710     0.08200
C1494       C  0.91775381  0.56334185  0.09951651    -0.05600
C1495       C  0.93201118  0.55129196  0.08521069    -0.06300
C1496       C  0.91545397  0.55399873  0.06992147    -0.15900
C1497       C  0.88278338  0.56829429  0.06885609    -0.01500
C1498       C  0.86875526  0.58075401  0.08316449    -0.09100
C1499       C  0.93536487  0.55823548  0.11582234     0.65200
H1500       H  0.95637970  0.53954833  0.08584828     0.10700
C1501       C  0.86181943  0.56886921  0.05274690     0.63600
H1502       H  0.84399069  0.59200507  0.08260653     0.08000
F1503       F  0.80182083  0.49977458  0.14928162    -0.19400
F1504       F  0.74581543  0.50790484  0.13820612    -0.15700
F1505       F  0.77778545  0.54231095  0.16174527    -0.19200
F1506       F  0.91051384  0.67846565  0.09289763    -0.22500
F1507       F  0.96401083  0.67010561  0.10601348    -0.24000
F1508       F  0.94361870  0.71955737  0.11517378    -0.18000
F1509       F  0.82672901  0.57824918  0.05458770    -0.20500
F1510       F  0.84432324  0.52679864  0.04530564    -0.21700
F1511       F  0.89455372  0.60179726  0.04288543    -0.18800
F1512       F  0.96906000  0.54679713  0.11415480    -0.18900
F1513       F  0.89998414  0.52427164  0.12455207    -0.22800
F1514       F  0.95343185  0.59849245  0.12449788    -0.24400
C1515       C  0.68898343  0.59255699  0.12376713    -0.11200
C1516       C  0.71292690  0.62000591  0.11062210     0.11400
C1517       C  0.75950147  0.65295443  0.11229935    -0.03000
C1518       C  0.78076447  0.65637030  0.12720884    -0.05700
C1519       C  0.75782757  0.62610455  0.13993827    -0.16500
C1520       C  0.71097967  0.59319537  0.13816404     0.02400
C1521       C  0.68878528  0.61009071  0.09495090     0.12400
C1522       C  0.78675414  0.68362925  0.09838120     0.63000
H1523       H  0.81576531  0.68274041  0.12903606     0.12400
C1524       C  0.68253940  0.55659962  0.15042704     0.55100
H1525       H  0.65308471  0.56791331  0.12231758     0.08200
C1526       C  0.67925532  0.57069518  0.08597498    -0.05600
C1527       C  0.65317769  0.56093437  0.07186191    -0.06300
C1528       C  0.63773369  0.58982295  0.06618834    -0.15900
C1529       C  0.64889739  0.63028936  0.07480748    -0.01500
C1530       C  0.67335781  0.63908182  0.08940193    -0.09100
C1531       C  0.69712796  0.53941915  0.09112257     0.65200
H1532       H  0.64508779  0.53062287  0.06494100     0.10700
C1533       C  0.63440888  0.66340003  0.06884971     0.63600
H1534       H  0.68069681  0.66868300  0.09662721     0.08000
F1535       F  0.66402784  0.51439733  0.14301137    -0.19400
F1536       F  0.64742018  0.56291451  0.15579600    -0.15700
F1537       F  0.70682412  0.55598169  0.16367099    -0.19200
F1538       F  0.76834327  0.71011109  0.09373981    -0.22500
F1539       F  0.78598786  0.65750243  0.08536923    -0.24000
F1540       F  0.83179725  0.71250635  0.10260186    -0.18000
F1541       F  0.64563791  0.69853651  0.07975417    -0.20500
F1542       F  0.58776099  0.64086680  0.06655782    -0.21700
F1543       F  0.65603398  0.68244417  0.05439921    -0.18800
F1544       F  0.68717910  0.50545955  0.07982847    -0.18900
F1545       F  0.67772200  0.51860005  0.10561477    -0.22800
F1546       F  0.74391790  0.56426332  0.09290866    -0.24400
C1547       C  0.63725880  0.16841062  0.31212326    -0.11200
C1548       C  0.65332682  0.15681770  0.32590028     0.11400
C1549       C  0.67500886  0.18958627  0.33827800    -0.03000
C1550       C  0.67725279  0.23194170  0.33688404    -0.05700
C1551       C  0.66060607  0.24364587  0.32327247    -0.16500
C1552       C  0.64097857  0.21149110  0.31043538     0.02400
C1553       C  0.65111648  0.11183454  0.32629462     0.12400
C1554       C  0.69601415  0.17999942  0.35286004     0.63000
H1555       H  0.69158454  0.25618793  0.34667559     0.12400
C1556       C  0.62458682  0.22055460  0.29455302     0.55100
H1557       H  0.62222027  0.14364100  0.30242417     0.08200
C1558       C  0.61693747  0.07318308  0.33460804    -0.05600
C1559       C  0.61973965  0.03309795  0.33488623    -0.06300
C1560       C  0.65452795  0.02995098  0.32682448    -0.15900
C1561       C  0.68891702  0.06876342  0.31869666    -0.01500
C1562       C  0.68616232  0.10880165  0.31840978    -0.09100
C1563       C  0.57680431  0.07173546  0.34332396     0.65200
H1564       H  0.59405236  0.00362604  0.34134285     0.10700
C1565       C  0.72961415  0.06873688  0.31099694     0.63600
H1566       H  0.71209462  0.13872572  0.31225328     0.08000
F1567       F  0.57928583  0.18835418  0.29223724    -0.19400
F1568       F  0.64973980  0.21702959  0.28201466    -0.15700
F1569       F  0.62865742  0.26300592  0.29378333    -0.19200
F1570       F  0.72742432  0.16784069  0.34783454    -0.22500
F1571       F  0.66245495  0.14495883  0.36178433    -0.24000
F1572       F  0.71827588  0.21766392  0.36287718    -0.18000
F1573       F  0.76194132  0.11163093  0.30575750    -0.20500
F1574       F  0.71550152  0.03979206  0.29779048    -0.21700
F1575       F  0.75025456  0.05449311  0.32212714    -0.18800
F1576       F  0.57986967  0.06533472  0.35967976    -0.18900
F1577       F  0.53702073  0.03530355  0.33752392    -0.22800
F1578       F  0.57411138  0.11073547  0.34132629    -0.24400
C1579       C  0.65464089  0.55292519  0.34993944    -0.11200
C1580       C  0.68449753  0.55141815  0.33852882     0.11400
C1581       C  0.71425698  0.59103898  0.32974921    -0.03000
C1582       C  0.71293325  0.63124539  0.33272320    -0.05700
C1583       C  0.68243807  0.63272831  0.34393510    -0.16500
C1584       C  0.65286256  0.59296364  0.35280005     0.02400
C1585       C  0.68130587  0.50690170  0.33513692     0.12400
C1586       C  0.74577956  0.59027117  0.31679165     0.63000
H1587       H  0.73450710  0.66155130  0.32578692     0.12400
C1588       C  0.61807259  0.59199950  0.36465103     0.55100
H1589       H  0.63175949  0.52188711  0.35628209     0.08200
C1590       C  0.70227932  0.48884080  0.34503442    -0.05600
C1591       C  0.69759447  0.44646024  0.34086372    -0.06300
C1592       C  0.67305643  0.42175909  0.32711413    -0.15900
C1593       C  0.65259436  0.44072946  0.31706894    -0.01500
C1594       C  0.65637991  0.48243183  0.32157971    -0.09100
C1595       C  0.72897721  0.51400090  0.36002009     0.65200
H1596       H  0.71267305  0.43180655  0.34854113     0.10700
C1597       C  0.62747658  0.42049888  0.30131847     0.63600
H1598       H  0.64024683  0.49671810  0.31418295     0.08000
F1599       F  0.64030766  0.62010152  0.37765973    -0.19400
F1600       F  0.58953238  0.54867212  0.37052948    -0.15700
F1601       F  0.59123944  0.60660828  0.35714397    -0.19200
F1602       F  0.72034023  0.56367415  0.30390099    -0.22500
F1603       F  0.77150057  0.57254037  0.32296453    -0.24000
F1604       F  0.77541732  0.63343451  0.31102554    -0.18000
F1605       F  0.58339158  0.41245876  0.30261832    -0.20500
F1606       F  0.62608403  0.38058037  0.29702748    -0.21700
F1607       F  0.64854908  0.45133451  0.28894348    -0.18800
F1608       F  0.74941624  0.49207127  0.36729434    -0.18900
F1609       F  0.70007585  0.51694861  0.37115681    -0.22800
F1610       F  0.76281050  0.55739303  0.35597075    -0.24400
C1611       C  0.60813371  0.01532158  0.45168694    -0.11200
C1612       C  0.58883092  0.97019688  0.44637378     0.11400
C1613       C  0.54863294  0.93581721  0.45375425    -0.03000
C1614       C  0.52865267  0.94818180  0.46624055    -0.05700
C1615       C  0.54705234  0.99361643  0.47120701    -0.16500
C1616       C  0.58740861  0.02798289  0.46380420     0.02400
C1617       C  0.60858069  0.96072538  0.43187363     0.12400
C1618       C  0.52663815  0.88651191  0.44824689     0.63000
H1619       H  0.49822377  0.92245281  0.47215481     0.12400
C1620       C  0.60751308  0.07801538  0.46811923     0.55100
H1621       H  0.63887726  0.04083423  0.44580060     0.08200
C1622       C  0.59854965  0.96965521  0.41616976    -0.05600
C1623       C  0.61431826  0.95594267  0.40280411    -0.06300
C1624       C  0.63948747  0.93368278  0.40467420    -0.15900
C1625       C  0.65173939  0.92698703  0.42036926    -0.01500
C1626       C  0.63606348  0.94095024  0.43381651    -0.09100
C1627       C  0.57075672  0.99300784  0.41354937     0.65200
H1628       H  0.60576899  0.96122124  0.39069115     0.10700
C1629       C  0.68206667  0.90641329  0.42285835     0.63600
H1630       H  0.64410866  0.93549833  0.44597784     0.08000
F1631       F  0.64390786  0.10570254  0.45823509    -0.19400
F1632       F  0.62296698  0.08583698  0.48389392    -0.15700
F1633       F  0.57479744  0.09063775  0.46636515    -0.19200
F1634       F  0.55592882  0.87003944  0.45108804    -0.22500
F1635       F  0.51694498  0.88323254  0.43189322    -0.24000
F1636       F  0.48635526  0.85908282  0.45639193    -0.18000
F1637       F  0.69457755  0.90850459  0.43890370    -0.20500
F1638       F  0.72134795  0.93002801  0.41377479    -0.21700
F1639       F  0.65957775  0.86121316  0.41817632    -0.18800
F1640       F  0.55978024  0.99283349  0.39741890    -0.18900
F1641       F  0.59540992  0.03773859  0.41867996    -0.22800
F1642       F  0.53059859  0.97110175  0.42219695    -0.24400
C1643       C  0.60008295  0.67106238  0.43056441    -0.11200
C1644       C  0.55451819  0.65192649  0.43520289     0.11400
C1645       C  0.52441285  0.66084399  0.42621389    -0.03000
C1646       C  0.54090221  0.68754719  0.41218536    -0.05700
C1647       C  0.58607432  0.70491247  0.40707455    -0.16500
C1648       C  0.61661793  0.69741894  0.41654669     0.02400
C1649       C  0.53951725  0.62198546  0.44947135     0.12400
C1650       C  0.47535870  0.64232070  0.43150261     0.63000
H1651       H  0.51855631  0.69467005  0.40498554     0.12400
C1652       C  0.66669358  0.71790194  0.41218980     0.55100
H1653       H  0.62240317  0.66427643  0.43792957     0.08200
C1654       C  0.52859349  0.57608602  0.44830728    -0.05600
C1655       C  0.51644919  0.55007191  0.46243717    -0.06300
C1656       C  0.51298797  0.56775783  0.47742594    -0.15900
C1657       C  0.52519627  0.61430393  0.47864464    -0.01500
C1658       C  0.53889912  0.64073725  0.46453653    -0.09100
C1659       C  0.53012516  0.55476642  0.43226167     0.65200
H1660       H  0.50965299  0.51535464  0.46191896     0.10700
C1661       C  0.52476422  0.63835820  0.49414677     0.63600
H1662       H  0.54880021  0.67644381  0.46522962     0.08000
F1663       F  0.67106721  0.69825334  0.39812543    -0.19400
F1664       F  0.69090415  0.71083005  0.42419274    -0.15700
F1665       F  0.68618425  0.76434671  0.41003694    -0.19200
F1666       F  0.47435734  0.65995748  0.44650774    -0.22500
F1667       F  0.45334111  0.59543975  0.43251606    -0.24000
F1668       F  0.45148573  0.65376430  0.42075720    -0.18000
F1669       F  0.56881029  0.67184352  0.49777320    -0.20500
F1670       F  0.50732733  0.60989098  0.50730141    -0.21700
F1671       F  0.49859846  0.65871470  0.49185798    -0.18800
F1672       F  0.51520288  0.50880372  0.43378313    -0.18900
F1673       F  0.57424371  0.57590830  0.42646619    -0.22800
F1674       F  0.50253801  0.55941751  0.42106459    -0.24400
C1675       C  0.75150931  0.72011503  0.25226707    -0.11200
C1676       C  0.71925991  0.69869484  0.23999586     0.11400
C1677       C  0.67352862  0.68775559  0.24251497    -0.03000
C1678       C  0.66278361  0.70361187  0.25671444    -0.05700
C1679       C  0.69589683  0.72727778  0.26856776    -0.16500
C1680       C  0.74030251  0.73384114  0.26674032     0.02400
C1681       C  0.73492357  0.68727029  0.22489423     0.12400
C1682       C  0.63629425  0.65817832  0.23059220     0.63000
H1683       H  0.62856335  0.69736607  0.25874756     0.12400
C1684       C  0.77535683  0.75455695  0.28020472     0.55100
H1685       H  0.78573601  0.72621688  0.25032677     0.08200
C1686       C  0.75636243  0.71949760  0.21240215    -0.05600
C1687       C  0.77374317  0.70741229  0.19898627    -0.06300
C1688       C  0.77115354  0.66483977  0.19795747    -0.15900
C1689       C  0.74829753  0.63219669  0.21027071    -0.01500
C1690       C  0.73181830  0.64465927  0.22378625    -0.09100
C1691       C  0.76148856  0.76659216  0.21341278     0.65200
H1692       H  0.79044329  0.73149271  0.18928730     0.10700
C1693       C  0.73939959  0.58373799  0.20978347     0.63600
H1694       H  0.71583682  0.62060897  0.23357115     0.08000
F1695       F  0.81519425  0.75462659  0.27640631    -0.19400
F1696       F  0.75794430  0.72961125  0.29422189    -0.15700
F1697       F  0.78595055  0.79898421  0.28301451    -0.19200
F1698       F  0.63291010  0.61590041  0.22960313    -0.22500
F1699       F  0.64618520  0.67783145  0.21544432    -0.24000
F1700       F  0.59433250  0.65188758  0.23532387    -0.18000
F1701       F  0.76535280  0.57855687  0.22155440    -0.20500
F1702       F  0.74908093  0.57158495  0.19498981    -0.21700
F1703       F  0.69384872  0.55403275  0.21295610    -0.18800
F1704       F  0.78342842  0.79260003  0.19997308    -0.18900
F1705       F  0.78668935  0.78936790  0.22692460    -0.22800
F1706       F  0.71910339  0.76294861  0.21446603    -0.24400
C1707       C  0.41256528  0.12536237  0.34107488    -0.11200
C1708       C  0.44777559  0.12615467  0.33175934     0.11400
C1709       C  0.43994244  0.08601500  0.32356870    -0.03000
C1710       C  0.39677322  0.04713087  0.32461141    -0.05700
C1711       C  0.36171791  0.04605037  0.33396039    -0.16500
C1712       C  0.36938636  0.08569896  0.34235151     0.02400
C1713       C  0.49184762  0.16957568  0.33073871     0.12400
C1714       C  0.47530159  0.08121327  0.31377111     0.63000
H1715       H  0.39069974  0.01644241  0.31831462     0.12400
C1716       C  0.33187697  0.08638585  0.35212867     0.55100
H1717       H  0.41919802  0.15623746  0.34729650     0.08200
C1718       C  0.50337552  0.19834212  0.31715864    -0.05600
C1719       C  0.54734078  0.23643747  0.31625402    -0.06300
C1720       C  0.57853546  0.24960443  0.32911567    -0.15900
C1721       C  0.56534516  0.22237282  0.34332992    -0.01500
C1722       C  0.52267241  0.18206414  0.34362485    -0.09100
C1723       C  0.46905969  0.18928087  0.30384225     0.65200
H1724       H  0.55763244  0.25647937  0.30534679     0.10700
C1725       C  0.59360839  0.23377517  0.35863146     0.63600
H1726       H  0.51295701  0.16029572  0.35417239     0.08000
F1727       F  0.29360752  0.07200407  0.34257367    -0.19400
F1728       F  0.34478918  0.12960223  0.35783215    -0.15700
F1729       F  0.32107073  0.05773833  0.36525826    -0.19200
F1730       F  0.51794606  0.11958768  0.31403027    -0.22500
F1731       F  0.46097118  0.07118012  0.29786864    -0.24000
F1732       F  0.47921156  0.04551637  0.31987470    -0.18000
F1733       F  0.56868911  0.23623027  0.37147019    -0.20500
F1734       F  0.63391244  0.27458406  0.35781885    -0.21700
F1735       F  0.60346314  0.19959701  0.36173991    -0.18800
F1736       F  0.48548867  0.22430105  0.29271670    -0.18900
F1737       F  0.42964794  0.18503455  0.31049233    -0.22800
F1738       F  0.45869864  0.14968335  0.29568878    -0.24400
C1739       C  0.81569152  0.48363311  0.30732116    -0.11200
C1740       C  0.84508182  0.49170490  0.32032461     0.11400
C1741       C  0.82969785  0.46166869  0.33363849    -0.03000
C1742       C  0.78463315  0.42505811  0.33360977    -0.05700
C1743       C  0.75534375  0.41538099  0.32029220    -0.16500
C1744       C  0.77157621  0.44541496  0.30679090     0.02400
C1745       C  0.89040996  0.53397162  0.32037982     0.12400
C1746       C  0.86097977  0.46815072  0.34776297     0.63000
H1747       H  0.77173398  0.40341477  0.34412213     0.12400
C1748       C  0.74462782  0.44029563  0.29163074     0.55100
H1749       H  0.82755573  0.50750991  0.29735478     0.08200
C1750       C  0.92854111  0.53826673  0.31173047    -0.05600
C1751       C  0.97086372  0.57876596  0.31342957    -0.06300
C1752       C  0.97568856  0.61463198  0.32335434    -0.15900
C1753       C  0.93684867  0.61091168  0.33135185    -0.01500
C1754       C  0.89487946  0.57054167  0.32967555    -0.09100
C1755       C  0.92418551  0.50124709  0.30026069     0.65200
H1756       H  0.00035503  0.58307333  0.30680560     0.10700
C1757       C  0.93927025  0.64972260  0.34139350     0.63600
H1758       H  0.86495931  0.56680571  0.33583678     0.08000
F1759       F  0.77015897  0.44321411  0.27814460    -0.19400
F1760       F  0.73509791  0.47537794  0.29106577    -0.15700
F1761       F  0.70468468  0.39945798  0.29084496    -0.19200
F1762       F  0.87157977  0.50771920  0.35603370    -0.22500
F1763       F  0.90070775  0.47083091  0.34213984    -0.24000
F1764       F  0.84102085  0.43236932  0.35855698    -0.18000
F1765       F  0.95919114  0.68952035  0.33251590    -0.20500
F1766       F  0.96468606  0.65572516  0.35518394    -0.21700
F1767       F  0.89649123  0.64118376  0.34611714    -0.18800
F1768       F  0.96637194  0.50854430  0.29532032    -0.18900
F1769       F  0.89997941  0.50045099  0.28671349    -0.22800
F1770       F  0.90153696  0.45928346  0.30765436    -0.24400
C1771       C  0.00122122  0.58340712  0.44442981    -0.11200
C1772       C  0.04788443  0.61110634  0.44148777     0.11400
C1773       C  0.07978829  0.61127357  0.45254907    -0.03000
C1774       C  0.06350177  0.58277313  0.46618897    -0.05700
C1775       C  0.01668356  0.55433039  0.46898313    -0.16500
C1776       C  0.98485383  0.55526122  0.45808544     0.02400
C1777       C  0.06208059  0.63960886  0.42668350     0.12400
C1778       C  0.13068435  0.64165633  0.44999222     0.63000
H1779       H  0.08726707  0.58250805  0.47485702     0.12400
C1780       C  0.93353435  0.52766758  0.46006183     0.55100
H1781       H  0.97717959  0.58403242  0.43594698     0.08200
C1782       C  0.06246259  0.62123379  0.41130723    -0.05600
C1783       C  0.07558143  0.64998653  0.39775560    -0.06300
C1784       C  0.08940814  0.69635978  0.39921001    -0.15900
C1785       C  0.08948111  0.71484215  0.41459706    -0.01500
C1786       C  0.07482104  0.68573717  0.42810460    -0.09100
C1787       C  0.04934479  0.57158812  0.40924548     0.65200
H1788       H  0.07591265  0.63661055  0.38585962     0.10700
C1789       C  0.10521670  0.76498128  0.41671664     0.63600
H1790       H  0.07403362  0.69894007  0.43998311     0.08000
F1791       F  0.91549213  0.49563899  0.44778980    -0.19400
F1792       F  0.91551894  0.55624543  0.45895787    -0.15700
F1793       F  0.91994933  0.50552250  0.47468195    -0.19200
F1794       F  0.14212581  0.68674491  0.45141464    -0.22500
F1795       F  0.14295544  0.63445719  0.43477467    -0.24000
F1796       F  0.15573074  0.63324975  0.46124562    -0.18000
F1797       F  0.09619741  0.77460235  0.43212691    -0.20500
F1798       F  0.08317261  0.77809190  0.40577417    -0.21700
F1799       F  0.15166809  0.79026614  0.41413654    -0.18800
F1800       F  0.05610467  0.56196825  0.39353133    -0.18900
F1801       F  0.00388571  0.54384888  0.41300489    -0.22800
F1802       F  0.07533197  0.56121592  0.41933364    -0.24400
C1803       C  0.34497469  0.94373568  0.41942196    -0.11200
C1804       C  0.37208789  0.92510278  0.42381244     0.11400
C1805       C  0.36936334  0.88823017  0.41472614    -0.03000
C1806       C  0.33997278  0.87185130  0.40121403    -0.05700
C1807       C  0.31411072  0.89170351  0.39651542    -0.16500
C1808       C  0.31655023  0.92830858  0.40574479     0.02400
C1809       C  0.40186878  0.94439067  0.43832659     0.12400
C1810       C  0.39723994  0.86627155  0.41933624     0.63000
H1811       H  0.33712107  0.84357057  0.39415182     0.12400
C1812       C  0.28837711  0.95036843  0.40144254     0.55100
H1813       H  0.34662722  0.97095924  0.42681930     0.08200
C1814       C  0.44263181  0.98715211  0.43805917    -0.05600
C1815       C  0.46761035  0.00423658  0.45252396    -0.06300
C1816       C  0.45296311  0.98011656  0.46711277    -0.15900
C1817       C  0.41243064  0.93704957  0.46729229    -0.01500
C1818       C  0.38735368  0.92026128  0.45287495    -0.09100
C1819       C  0.45959511  0.01457141  0.42256678     0.65200
H1820       H  0.49853079  0.03695974  0.45261192     0.10700
C1821       C  0.39554657  0.90864454  0.48259166     0.63600
H1822       H  0.35554664  0.88824101  0.45288039     0.08000
F1823       F  0.30220052  0.97205907  0.38668782    -0.19400
F1824       F  0.29307894  0.98257385  0.41279631    -0.15700
F1825       F  0.24277020  0.91757148  0.40063040    -0.19200
F1826       F  0.38234800  0.84436675  0.43400648    -0.22500
F1827       F  0.44264849  0.89905234  0.42062092    -0.24000
F1828       F  0.39354747  0.83458855  0.40793211    -0.18000
F1829       F  0.38063937  0.92916190  0.49355912    -0.20500
F1830       F  0.43012934  0.90409435  0.48951437    -0.21700
F1831       F  0.35960176  0.86540638  0.47944708    -0.18800
F1832       F  0.50139739  0.05357847  0.42472187    -0.18900
F1833       F  0.42907052  0.02760293  0.41741677    -0.22800
F1834       F  0.46426288  0.98859223  0.41060006    -0.24400
C1835       C  0.91140959  0.66945634  0.22007692    -0.11200
C1836       C  0.92289465  0.71300849  0.22561182     0.11400
C1837       C  0.90547102  0.73774709  0.21758588    -0.03000
C1838       C  0.87672928  0.71766061  0.20420023    -0.05700
C1839       C  0.86369958  0.67333979  0.19890492    -0.16500
C1840       C  0.88116473  0.64848615  0.20707865     0.02400
C1841       C  0.95590687  0.73311562  0.23912823     0.12400
C1842       C  0.91797480  0.78552844  0.22292351     0.63000
H1843       H  0.86513615  0.73712922  0.19742148     0.12400
C1844       C  0.87077971  0.60110469  0.20206768     0.55100
H1845       H  0.92657463  0.65182133  0.22601931     0.08200
C1846       C  0.94286577  0.72241841  0.25550371    -0.05600
C1847       C  0.97642704  0.74308053  0.26757527    -0.06300
C1848       C  0.02231747  0.77326614  0.26372456    -0.15900
C1849       C  0.03536760  0.78289577  0.24722742    -0.01500
C1850       C  0.00165869  0.76256653  0.23522449    -0.09100
C1851       C  0.89397636  0.68867638  0.26013772     0.65200
H1852       H  0.96721644  0.73513471  0.28017981     0.10700
C1853       C  0.08473031  0.81298169  0.24216809     0.63600
H1854       H  0.01072744  0.76929079  0.22256043     0.08000
F1855       F  0.87185248  0.57698432  0.21536218    -0.19400
F1856       F  0.90320930  0.60455658  0.19111345    -0.15700
F1857       F  0.82820246  0.57627856  0.19517462    -0.19200
F1858       F  0.96407481  0.81470527  0.22074122    -0.22500
F1859       F  0.90742000  0.78556463  0.23908169    -0.24000
F1860       F  0.89470210  0.80217068  0.21416866    -0.18000
F1861       F  0.09018163  0.81240263  0.22557803    -0.20500
F1862       F  0.11175793  0.79802768  0.24930191    -0.21700
F1863       F  0.09962351  0.85743034  0.24682216    -0.18800
F1864       F  0.88842761  0.68389450  0.27674420    -0.18900
F1865       F  0.88141068  0.64641661  0.25361967    -0.22800
F1866       F  0.86509707  0.70308521  0.25433353    -0.24400
C1867       C  0.91098726  0.29197319  0.12597217    -0.11200
C1868       C  0.92332281  0.28268077  0.11083118     0.11400
C1869       C  0.91836568  0.23937595  0.10772508    -0.03000
C1870       C  0.90280052  0.20725572  0.12023661    -0.05700
C1871       C  0.88996045  0.21619076  0.13537599    -0.16500
C1872       C  0.89269574  0.25882674  0.13818902     0.02400
C1873       C  0.93931209  0.31810893  0.09811666     0.12400
C1874       C  0.92928919  0.22703586  0.09125700     0.63000
H1875       H  0.90072797  0.17472270  0.11829603     0.12400
C1876       C  0.87482825  0.26908785  0.15361115     0.55100
H1877       H  0.91509829  0.32537176  0.12804952     0.08200
C1878       C  0.90848686  0.32668948  0.08943318    -0.05600
C1879       C  0.92533918  0.35807534  0.07668494    -0.06300
C1880       C  0.97114031  0.37899759  0.07182502    -0.15900
C1881       C  0.00197745  0.37040201  0.08051972    -0.01500
C1882       C  0.98566468  0.34112057  0.09395413    -0.09100
C1883       C  0.85770146  0.30107349  0.09305807     0.65200
H1884       H  0.90217511  0.36476535  0.06980176     0.10700
C1885       C  0.05144016  0.39122899  0.07549750     0.63600
H1886       H  0.00855231  0.33409063  0.10085677     0.08000
F1887       F  0.86901799  0.30639322  0.15170789    -0.19400
F1888       F  0.90505321  0.27854367  0.16618163    -0.15700
F1889       F  0.83302285  0.23242866  0.15772694    -0.19200
F1890       F  0.97559929  0.25216432  0.08844328    -0.22500
F1891       F  0.90659958  0.23598117  0.07922717    -0.24000
F1892       F  0.91624078  0.18137783  0.09025308    -0.18000
F1893       F  0.07670019  0.38329921  0.08681089    -0.20500
F1894       F  0.07063922  0.43777880  0.07378482    -0.21700
F1895       F  0.05415339  0.37243898  0.06094886    -0.18800
F1896       F  0.83346678  0.31219450  0.08235901    -0.18900
F1897       F  0.84974592  0.31124760  0.10849659    -0.22800
F1898       F  0.84109465  0.25478811  0.09186137    -0.24400
C1899       C  0.66317360  0.05024994  0.09482151    -0.11200
C1900       C  0.70970875  0.07985870  0.09188986     0.11400
C1901       C  0.72485537  0.09464810  0.07590815    -0.03000
C1902       C  0.69258715  0.07919667  0.06336577    -0.05700
C1903       C  0.64590801  0.05096837  0.06633812    -0.16500
C1904       C  0.63062235  0.03640849  0.08231485     0.02400
C1905       C  0.74211376  0.09457484  0.10570077     0.12400
C1906       C  0.77460289  0.12793142  0.07217293     0.63000
H1907       H  0.70345059  0.09022243  0.05107282     0.12400
C1908       C  0.58045427  0.00612226  0.08607384     0.55100
H1909       H  0.65251619  0.03864219  0.10707845     0.08200
C1910       C  0.74676795  0.12848645  0.11685919    -0.05600
C1911       C  0.77988094  0.14215060  0.12908783    -0.06300
C1912       C  0.80854211  0.12353908  0.13032120    -0.15900
C1913       C  0.80430026  0.09010487  0.11900160    -0.01500
C1914       C  0.76989715  0.07504795  0.10724513    -0.09100
C1915       C  0.71675165  0.14988335  0.11596953     0.65200
H1916       H  0.78294731  0.16679022  0.13808349     0.10700
C1917       C  0.83542292  0.06985341  0.11851352     0.63600
H1918       H  0.76566687  0.04872626  0.09876021     0.08000
F1919       F  0.55735778  0.02921905  0.08291811    -0.19400
F1920       F  0.57331234  0.99306598  0.10214723    -0.15700
F1921       F  0.56261598  0.96724719  0.07660805    -0.19200
F1922       F  0.80140344  0.10932467  0.07612637    -0.22500
F1923       F  0.78881651  0.16744851  0.08098476    -0.24000
F1924       F  0.78144190  0.13927025  0.05594249    -0.18000
F1925       F  0.81076307  0.02435287  0.12260432    -0.20500
F1926       F  0.87235321  0.09133501  0.12880930    -0.21700
F1927       F  0.85226570  0.07348619  0.10299509    -0.18800
F1928       F  0.72850358  0.18353723  0.12756610    -0.18900
F1929       F  0.67179878  0.11714338  0.11848804    -0.22800
F1930       F  0.72093844  0.16926127  0.10094082    -0.24400
C1931       C  0.78322437  0.97372257  0.23965300    -0.11200
C1932       C  0.79444556  0.01919086  0.24134250     0.11400
C1933       C  0.78838385  0.03540781  0.25634414    -0.03000
C1934       C  0.77092791  0.00491986  0.26934892    -0.05700
C1935       C  0.75930243  0.95906834  0.26773060    -0.16500
C1936       C  0.76605548  0.94308217  0.25259471     0.02400
C1937       C  0.80990635  0.04681527  0.22659669     0.12400
C1938       C  0.80059169  0.08450609  0.25866328     0.63000
H1939       H  0.76618417  0.01677375  0.28096626     0.12400
C1940       C  0.75467429  0.89407639  0.24977887     0.55100
H1941       H  0.78790572  0.96231461  0.22790938     0.08200
C1942       C  0.86425678  0.05914769  0.21747138    -0.05600
C1943       C  0.87489404  0.07260552  0.19587370    -0.06300
C1944       C  0.83233654  0.07776988  0.18364254    -0.15900
C1945       C  0.77685770  0.06470932  0.19266093    -0.01500
C1946       C  0.76693285  0.05100884  0.21431079    -0.09100
C1947       C  0.89884415  0.05476559  0.22738000     0.65200
H1948       H  0.90791278  0.08175527  0.19070321     0.10700
C1949       C  0.74188377  0.06926749  0.18308107     0.63600
H1950       H  0.73438753  0.04190325  0.21957483     0.08000
F1951       F  0.76008455  0.88573439  0.23374622    -0.19400
F1952       F  0.70985904  0.86436520  0.25396058    -0.15700
F1953       F  0.78335534  0.88504948  0.25892395    -0.19200
F1954       F  0.77466488  0.09451130  0.24841040    -0.22500
F1955       F  0.84630992  0.11266360  0.25538167    -0.24000
F1956       F  0.79267356  0.09330339  0.27433621    -0.18000
F1957       F  0.70463183  0.05921395  0.19268578    -0.20500
F1958       F  0.72767583  0.03938515  0.17014771    -0.21700
F1959       F  0.76010951  0.11326960  0.17746160    -0.18800
F1960       F  0.91283645  0.08514172  0.24016306    -0.18900
F1961       F  0.93620331  0.06386960  0.21798824    -0.22800
F1962       F  0.88018259  0.01116182  0.23337836    -0.24400
C1963       C  0.47431433  0.36660772  0.09647992    -0.11200
C1964       C  0.44084701  0.32058451  0.09630046     0.11400
C1965       C  0.42087918  0.29882058  0.08146636    -0.03000
C1966       C  0.43441389  0.32464673  0.06719186    -0.05700
C1967       C  0.46779976  0.37093068  0.06730365    -0.16500
C1968       C  0.48921273  0.39223269  0.08219967     0.02400
C1969       C  0.42580048  0.29674598  0.11201024     0.12400
C1970       C  0.38513639  0.24867028  0.08075274     0.63000
H1971       H  0.41846873  0.30895627  0.05579609     0.12400
C1972       C  0.52669686  0.44192661  0.08332433     0.55100
H1973       H  0.48840561  0.38240965  0.10805764     0.08200
C1974       C  0.45261104  0.28315619  0.12085549    -0.05600
C1975       C  0.43576128  0.26074544  0.13561682    -0.06300
C1976       C  0.39210937  0.24886511  0.14120790    -0.15900
C1977       C  0.36627527  0.26474694  0.13279078    -0.01500
C1978       C  0.38419236  0.28908733  0.11836197    -0.09100
C1979       C  0.49799953  0.29080116  0.11453582     0.65200
H1980       H  0.45613816  0.25099257  0.14277569     0.10700
C1981       C  0.32052511  0.25696263  0.13885611     0.63600
H1982       H  0.36558458  0.30205456  0.11173284     0.08000
F1983       F  0.54002078  0.45565127  0.09914647    -0.19400
F1984       F  0.51167466  0.46975961  0.07696665    -0.15700
F1985       F  0.56470308  0.44808346  0.07493230    -0.19200
F1986       F  0.34607767  0.24135460  0.08863455    -0.22500
F1987       F  0.40154441  0.22318539  0.08808244    -0.24000
F1988       F  0.37355998  0.23337231  0.06497677    -0.18000
F1989       F  0.29896062  0.26941583  0.12744634    -0.20500
F1990       F  0.32672392  0.28274688  0.15259291    -0.21700
F1991       F  0.29187054  0.21168590  0.14240037    -0.18800
F1992       F  0.51677655  0.27215620  0.12466033    -0.18900
F1993       F  0.52866570  0.33678831  0.11330687    -0.22800
F1994       F  0.49206202  0.27081002  0.09946817    -0.24400
C1995       C  0.46179162  0.15676659  0.08606871    -0.11200
C1996       C  0.43343971  0.12302802  0.09713856     0.11400
C1997       C  0.41978606  0.07690158  0.09391737    -0.03000
C1998       C  0.43499261  0.06617313  0.07962548    -0.05700
C1999       C  0.46391800  0.09985904  0.06872424    -0.16500
C2000       C  0.47799418  0.14594551  0.07194655     0.02400
C2001       C  0.41786292  0.13659598  0.11191939     0.12400
C2002       C  0.38966554  0.03915437  0.10557463     0.63000
H2003       H  0.42461667  0.03107001  0.07684714     0.12400
C2004       C  0.50946654  0.18304314  0.06043174     0.55100
H2005       H  0.47136325  0.19169073  0.08865440     0.08200
C2006       C  0.44495296  0.15252927  0.12604483    -0.05600
C2007       C  0.42662604  0.16153776  0.13994816    -0.06300
C2008       C  0.38315866  0.15712986  0.13992650    -0.15900
C2009       C  0.35591264  0.14077340  0.12577483    -0.01500
C2010       C  0.37428749  0.13176359  0.11190172    -0.09100
C2011       C  0.49343372  0.16118332  0.12626952     0.65200
H2012       H  0.44694179  0.17410123  0.15084491     0.10700
C2013       C  0.30718625  0.13093957  0.12465203     0.63600
H2014       H  0.35386971  0.11961159  0.10099246     0.08000
F2015       F  0.55060471  0.18386321  0.05952925    -0.19400
F2016       F  0.51790511  0.22554788  0.06546697    -0.15700
F2017       F  0.49005466  0.17463510  0.04519744    -0.19200
F2018       F  0.34836732  0.03751551  0.10743903    -0.22500
F2019       F  0.41074952  0.04695542  0.12047086    -0.24000
F2020       F  0.38097520  0.99691240  0.10010402    -0.18000
F2021       F  0.30496469  0.16058473  0.11375864    -0.20500
F2022       F  0.28992493  0.13482332  0.13932368    -0.21700
F2023       F  0.27965597  0.08685607  0.11915668    -0.18800
F2024       F  0.51377337  0.17661762  0.14123202    -0.18900
F2025       F  0.51925809  0.19382855  0.11493246    -0.22800
F2026       F  0.49390500  0.12162577  0.12265496    -0.24400
C2027       C  0.27311778  0.05575752  0.20887167    -0.11200
C2028       C  0.29770357  0.06833737  0.22336752     0.11400
C2029       C  0.33721117  0.11176438  0.22479576    -0.03000
C2030       C  0.35124401  0.14096556  0.21132205    -0.05700
C2031       C  0.32655795  0.12839477  0.19673705    -0.16500
C2032       C  0.28610925  0.08535829  0.19560753     0.02400
C2033       C  0.28165593  0.03426720  0.23657554     0.12400
C2034       C  0.36452998  0.12692823  0.24040492     0.63000
H2035       H  0.38222898  0.17359397  0.21196262     0.12400
C2036       C  0.25659559  0.06962940  0.18050826     0.55100
H2037       H  0.24354768  0.02200995  0.20796665     0.08200
C2038       C  0.24338454  0.02485967  0.24620931    -0.05600
C2039       C  0.22912921  0.99087925  0.25805976    -0.06300
C2040       C  0.25236762  0.96695606  0.26077137    -0.15900
C2041       C  0.29059111  0.97626979  0.25110559    -0.01500
C2042       C  0.30401928  0.00932859  0.23888525    -0.09100
C2043       C  0.21800492  0.05087007  0.24411594     0.65200
H2044       H  0.20021837  0.98351767  0.26567846     0.10700
C2045       C  0.31647706  0.95095744  0.25345965     0.63600
H2046       H  0.33253226  0.01644526  0.23109436     0.08000
F2047       F  0.21283444  0.03530838  0.18404088    -0.19400
F2048       F  0.27498800  0.05287525  0.16934577    -0.15700
F2049       F  0.25328137  0.10504971  0.17373518    -0.19200
F2050       F  0.38295313  0.09949499  0.24357461    -0.22500
F2051       F  0.33670837  0.12398991  0.25314372    -0.24000
F2052       F  0.39990663  0.17146592  0.23954931    -0.18000
F2053       F  0.34980685  0.96235945  0.24179604    -0.20500
F2054       F  0.28669077  0.90459527  0.25250230    -0.21700
F2055       F  0.33749901  0.96151184  0.26841765    -0.18800
F2056       F  0.18522051  0.03995033  0.25595261    -0.18900
F2057       F  0.19658603  0.04076094  0.22924054    -0.22800
F2058       F  0.24807219  0.09708986  0.24504818    -0.24400
C2059       C  0.53298288  0.34550303  0.35121258    -0.11200
C2060       C  0.50102971  0.33629985  0.33889337     0.11400
C2061       C  0.51127163  0.32912010  0.32295539    -0.03000
C2062       C  0.55215927  0.32909161  0.32005242    -0.05700
C2063       C  0.58448552  0.33799307  0.33224732    -0.16500
C2064       C  0.57469137  0.34671156  0.34821479     0.02400
C2065       C  0.45771268  0.33592787  0.34270516     0.12400
C2066       C  0.47921407  0.32198484  0.30899688     0.63000
H2067       H  0.55907106  0.32208122  0.30798922     0.12400
C2068       C  0.60610758  0.35719688  0.36261588     0.55100
H2069       H  0.52520035  0.35178153  0.36335732     0.08200
C2070       C  0.41598480  0.29556017  0.34622943    -0.05600
C2071       C  0.37585551  0.29814172  0.34792370    -0.06300
C2072       C  0.37575372  0.33893928  0.34545214    -0.15900
C2073       C  0.41716798  0.37894789  0.34171335    -0.01500
C2074       C  0.45776367  0.37711681  0.34107425    -0.09100
C2075       C  0.41104608  0.24867979  0.34765382     0.65200
H2076       H  0.34383062  0.26745818  0.35038764     0.10700
C2077       C  0.41777533  0.42270598  0.33737672     0.63600
H2078       H  0.48963059  0.40738756  0.33813839     0.08000
F2079       F  0.58361397  0.32514058  0.37451996    -0.19400
F2080       F  0.61764709  0.39964707  0.36872869    -0.15700
F2081       F  0.64577678  0.35716946  0.35895216    -0.19200
F2082       F  0.47262345  0.35893094  0.30781035    -0.22500
F2083       F  0.43773718  0.28314272  0.31153198    -0.24000
F2084       F  0.49630778  0.31730421  0.29434201    -0.18000
F2085       F  0.39914597  0.43547619  0.34982783    -0.20500
F2086       F  0.39253764  0.41594392  0.32345801    -0.21700
F2087       F  0.46149772  0.45810817  0.33457080    -0.18800
F2088       F  0.38019585  0.22006720  0.33618973    -0.18900
F2089       F  0.39455684  0.23139571  0.36285018    -0.22800
F2090       F  0.45138828  0.24859563  0.34539521    -0.24400
C2091       C  0.81442627  0.33217903  0.30472298    -0.11200
C2092       C  0.83585758  0.33174922  0.31912937     0.11400
C2093       C  0.81401640  0.32882508  0.33404998    -0.03000
C2094       C  0.77128883  0.32652187  0.33397504    -0.05700
C2095       C  0.74956053  0.32718855  0.31955160    -0.16500
C2096       C  0.77166685  0.32976417  0.30460287     0.02400
C2097       C  0.88188397  0.33595977  0.31832248     0.12400
C2098       C  0.83606657  0.32849973  0.34999470     0.63000
H2099       H  0.75518298  0.32601815  0.34534199     0.12400
C2100       C  0.75288651  0.33084589  0.28814123     0.55100
H2101       H  0.83165570  0.33496226  0.29335692     0.08200
C2102       C  0.88783862  0.29826492  0.31492349    -0.05600
C2103       C  0.93204248  0.30423627  0.31570779    -0.06300
C2104       C  0.97016073  0.34650928  0.31951916    -0.15900
C2105       C  0.96461563  0.38469942  0.32201196    -0.01500
C2106       C  0.92034032  0.37864629  0.32147208    -0.09100
C2107       C  0.84782755  0.25201655  0.31046522     0.65200
H2108       H  0.93720888  0.27561628  0.31354291     0.10700
C2109       C  0.00538405  0.43161491  0.32482008     0.63600
H2110       H  0.91521171  0.40706770  0.32391679     0.08000
F2111       F  0.74918896  0.29516642  0.27883668    -0.19400
F2112       F  0.78265090  0.37125483  0.28060139    -0.15700
F2113       F  0.71067996  0.32721694  0.28883035    -0.19200
F2114       F  0.80855828  0.32381545  0.36308457    -0.22500
F2115       F  0.87671541  0.36878049  0.35194026    -0.24000
F2116       F  0.84449850  0.29262087  0.35018264    -0.18000
F2117       F  0.99275340  0.46444233  0.32650798    -0.20500
F2118       F  0.03480211  0.44328745  0.31180986    -0.21700
F2119       F  0.02800029  0.43175556  0.33870411    -0.18800
F2120       F  0.81402803  0.23803528  0.32204734    -0.18900
F2121       F  0.86051185  0.21912195  0.30927318    -0.22800
F2122       F  0.83042631  0.25475475  0.29567768    -0.24400
C2123       C  0.98198674  0.40605877  0.44594154    -0.11200
C2124       C  0.02751152  0.42462633  0.44124174     0.11400
C2125       C  0.06227672  0.46161460  0.44997044    -0.03000
C2126       C  0.04990145  0.47895553  0.46326380    -0.05700
C2127       C  0.00424827  0.46098731  0.46784943    -0.16500
C2128       C  0.96950235  0.42352113  0.45917821     0.02400
C2129       C  0.03775217  0.40643234  0.42655349     0.12400
C2130       C  0.11222369  0.48202988  0.44546228     0.63000
H2131       H  0.07599562  0.50614724  0.47047889     0.12400
C2132       C  0.91930129  0.39960913  0.46357899     0.55100
H2133       H  0.95587257  0.37769835  0.43909205     0.08200
C2134       C  0.04401971  0.36822218  0.42693869    -0.05600
C2135       C  0.05928004  0.35662920  0.41281648    -0.06300
C2136       C  0.06595658  0.38082191  0.39842836    -0.15900
C2137       C  0.05667661  0.41710191  0.39782088    -0.01500
C2138       C  0.04257250  0.42931396  0.41199873    -0.09100
C2139       C  0.03367477  0.33951654  0.44206383     0.65200
H2140       H  0.06603367  0.32861858  0.41286192     0.10700
C2141       C  0.06316958  0.44365167  0.38235909     0.63600
H2142       H  0.03648673  0.45778024  0.41199905     0.08000
F2143       F  0.90726982  0.35790354  0.47033535    -0.19400
F2144       F  0.89348245  0.39255594  0.44979028    -0.15700
F2145       F  0.90844924  0.42379310  0.47439547    -0.19200
F2146       F  0.11940353  0.49843037  0.42983170    -0.22500
F2147       F  0.12492868  0.44925374  0.44653731    -0.24000
F2148       F  0.14027575  0.51773536  0.45560004    -0.18000
F2149       F  0.05301366  0.47810576  0.38446172    -0.20500
F2150       F  0.03477524  0.41469501  0.37046876    -0.21700
F2151       F  0.10790904  0.46305141  0.37725626    -0.18800
F2152       F  0.04334015  0.30471334  0.43997383    -0.18900
F2153       F  0.98795508  0.32024686  0.44577250    -0.22800
F2154       F  0.05910498  0.36601635  0.45496360    -0.24400
C2155       C  0.37087152  0.49970662  0.46117020    -0.11200
C2156       C  0.36927575  0.46893765  0.44942596     0.11400
C2157       C  0.39378612  0.44574697  0.45190190    -0.03000
C2158       C  0.41909107  0.45420620  0.46618118    -0.05700
C2159       C  0.42170936  0.48579160  0.47773047    -0.16500
C2160       C  0.39636326  0.50826547  0.47547163     0.02400
C2161       C  0.34225199  0.46190020  0.43449321     0.12400
C2162       C  0.39343500  0.41229764  0.43952569     0.63000
H2163       H  0.43859373  0.43732871  0.46824281     0.12400
C2164       C  0.39405541  0.54057456  0.48770175     0.55100
H2165       H  0.35188305  0.51716726  0.45914765     0.08200
C2166       C  0.29491078  0.43075055  0.43387527    -0.05600
C2167       C  0.27266471  0.42176358  0.41882996    -0.06300
C2168       C  0.29626927  0.44279187  0.40456316    -0.15900
C2169       C  0.34296953  0.47625140  0.40539864    -0.01500
C2170       C  0.36520136  0.48544101  0.42047879    -0.09100
C2171       C  0.26820365  0.40688112  0.44899524     0.65200
H2172       H  0.23674502  0.39685677  0.41797813     0.10700
C2173       C  0.36882625  0.50266484  0.39056005     0.63600
H2174       H  0.40120418  0.50992643  0.42137550     0.08000
F2175       F  0.34911955  0.52439609  0.49201912    -0.19400
F2176       F  0.41090127  0.58298860  0.48075815    -0.15700
F2177       F  0.41824310  0.54530892  0.50168930    -0.19200
F2178       F  0.40975976  0.43371894  0.42485932    -0.22500
F2179       F  0.34955402  0.37656037  0.43748674    -0.24000
F2180       F  0.42050860  0.39452331  0.44428218    -0.18000
F2181       F  0.41314971  0.53548790  0.39427160    -0.20500
F2182       F  0.34719233  0.52423977  0.38397191    -0.21700
F2183       F  0.37041709  0.47351611  0.37918852    -0.18800
F2184       F  0.22318795  0.37571861  0.44550528    -0.18900
F2185       F  0.26891258  0.43866278  0.45969751    -0.22800
F2186       F  0.28717614  0.38381146  0.45639937    -0.24400
C2187       C  0.92255245  0.16694924  0.21983172    -0.11200
C2188       C  0.96846377  0.19977040  0.21861540     0.11400
C2189       C  0.98813066  0.21544772  0.20327050    -0.03000
C2190       C  0.96008895  0.19921041  0.18953074    -0.05700
C2191       C  0.91277500  0.16838009  0.19048405    -0.16500
C2192       C  0.89361130  0.15001489  0.20621808     0.02400
C2193       C  0.99513939  0.21605741  0.23381760     0.12400
C2194       C  0.03880732  0.24850106  0.20138719     0.63000
H2195       H  0.97570118  0.20990151  0.17775955     0.12400
C2196       C  0.84166487  0.11201334  0.20911202     0.55100
H2197       H  0.90950451  0.15456519  0.23181044     0.08200
C2198       C  0.99467575  0.25025605  0.24349559    -0.05600
C2199       C  0.02066904  0.26383526  0.25778068    -0.06300
C2200       C  0.04653048  0.24396235  0.26285392    -0.15900
C2201       C  0.04530204  0.20826142  0.25330598    -0.01500
C2202       C  0.01949391  0.19509473  0.23892794    -0.09100
C2203       C  0.96646629  0.27196494  0.23880706     0.65200
H2204       H  0.02121810  0.29074510  0.26503444     0.10700
C2205       C  0.07009727  0.18327044  0.25817972     0.63600
H2206       H  0.01815319  0.16820962  0.23141135     0.08000
F2207       F  0.83489004  0.12390372  0.22480801    -0.19400
F2208       F  0.80814569  0.03158755  0.20234731    -0.15700
F2209       F  0.82445640  0.13769267  0.20160815    -0.19200
F2210       F  0.06298131  0.22759308  0.20607586    -0.22500
F2211       F  0.05181096  0.28667821  0.21089500    -0.24000
F2212       F  0.05034049  0.26272765  0.18553825    -0.18000
F2213       F  0.05851393  0.14583747  0.24836643    -0.20500
F2214       F  0.05884371  0.16791323  0.27390740    -0.21700
F2215       F  0.11660734  0.21199268  0.25692407    -0.18800
F2216       F  0.97352676  0.30698124  0.24922810    -0.18900
F2217       F  0.92070757  0.23962889  0.23922781    -0.22800
F2218       F  0.97770432  0.28966923  0.22337027    -0.24400
C2219       C  0.36477267  0.27505073  0.22175148    -0.11200
C2220       C  0.31915708  0.25892129  0.22590965     0.11400
C2221       C  0.28412937  0.22482940  0.21624862    -0.03000
C2222       C  0.29622755  0.20778543  0.20271811    -0.05700
C2223       C  0.34189176  0.22353671  0.19866193    -0.16500
C2224       C  0.37698523  0.25741755  0.20845525     0.02400
C2225       C  0.30894798  0.27720962  0.24075515     0.12400
C2226       C  0.23420828  0.20660082  0.22020501     0.63000
H2227       H  0.27002531  0.18217696  0.19503628     0.12400
C2228       C  0.42755397  0.27513502  0.20602478     0.55100
H2229       H  0.39128184  0.30120885  0.22921566     0.08200
C2230       C  0.31193189  0.26194107  0.25639091    -0.05600
C2231       C  0.29781043  0.27750623  0.26979608    -0.06300
C2232       C  0.27985600  0.30658063  0.26794011    -0.15900
C2233       C  0.27865333  0.32333361  0.25243118    -0.01500
C2234       C  0.29418772  0.30897832  0.23905674    -0.09100
C2235       C  0.32807380  0.22787498  0.25880807     0.65200
H2236       H  0.29866827  0.26537279  0.28181442     0.10700
C2237       C  0.26080447  0.35595817  0.25008902     0.63600
H2238       H  0.29315675  0.32097751  0.22703601     0.08000
F2239       F  0.44469233  0.26525317  0.21961851    -0.19400
F2240       F  0.44983703  0.32184659  0.20410381    -0.15700
F2241       F  0.43730913  0.25645612  0.19280320    -0.19200
F2242       F  0.22369798  0.24085339  0.21862082    -0.22500
F2243       F  0.22525429  0.19047419  0.23588667    -0.24000
F2244       F  0.20587877  0.17130061  0.20997662    -0.18000
F2245       F  0.26857665  0.37321860  0.23454516    -0.20500
F2246       F  0.28225032  0.39214594  0.26076244    -0.21700
F2247       F  0.21440325  0.33363342  0.25289233    -0.18800
F2248       F  0.32655149  0.21611317  0.27490274    -0.18900
F2249       F  0.37249266  0.24602358  0.25355556    -0.22800
F2250       F  0.30062405  0.18869550  0.25011597    -0.24400
loop_ 
_geom_bond_atom_site_label_1 
_geom_bond_atom_site_label_2 
_geom_bond_distance 
_geom_bond_site_symmetry_2 
_ccdc_geom_bond_type 
O1           Mg3   2.140       .  S
O1           Mg9   2.156       .  S
O1           C36   1.235       .  S
C2           O15   1.236       .  S
C2           O39   1.271       .  A
C2           H41   1.081       .  S
Mg3          O32   2.157       .  S
Mg3          O47   2.331       .  S
Mg3          O43   2.251       .  S
Mg3          O14   2.310       .  S
O4          Mg46   2.158       .  S
O4          Mg29   2.164       .  S
O4           C25   1.236       .  S
O5           C36   1.269       .  A
O5          Mg29   2.297       .  S
C6            O8   1.272       .  A
C6           O20   1.277       .  A
C6         C2168   1.481       .  S
O7           C35   1.269       .  A
O7           Mg9   2.302       .  S
O8          Mg40   2.272       .  S
Mg9          O15   2.154       .  S
Mg9          O23   2.274       .  S
Mg9          O11   2.298       .  S
C10          O48   1.275       .  A
C10          O16   1.274       .  A
C10        C2072   1.484       .  S
O11          C18   1.275       .  A
H12          C25   1.081       .  S
C13          O27   1.236       .  S
C13          O28   1.270       .  A
C13          H38   1.081       .  S
O14          C37   1.272       .  A
O15         Mg29   2.163       .  S
O16         Mg46   2.306       .  S
C17          O30   1.271       .  A
C17          O22   1.273       .  A
C17        C2232   1.477       .  S
C18          O45   1.271       .  A
C18        C2200   1.499       .  S
Mg19         O26   2.167       .  S
Mg19         O27   2.152       .  S
Mg19         O20   2.326       .  S
Mg19         O21   2.307       .  S
Mg19         O48   2.305       .  S
O21          C25   1.271       .  A
O22         Mg29   2.302       .  S
O23          C42   1.272       .  A
O24          C44   1.273       .  A
O24         Mg40   2.299       .  S
O26         Mg40   2.157       .  S
O26          C37   1.237       .  S
O27         Mg46   2.152       .  S
O28         Mg40   2.301       .  S
Mg29         O45   2.281       .  S
O30         Mg46   2.267       .  S
H31          C36   1.081       .  S
O32         Mg40   2.161       .  S
O32          C35   1.234       .  S
H33          C35   1.081       .  S
H34          C37   1.081       .  S
O39         Mg46   2.303       .  S
C42          O47   1.277       .  A
C42        C2104   1.482   1_455  S
O43          C44   1.270       .  A
C44        C2136   1.468       .  S
C49        C2031   1.493       .  S
C49          C50   1.417       .  A
C49          C54   1.406       .  A
C50        C2223   1.485       .  S
C50          C51   1.404       .  A
C51          H56   1.082       .  S
C51          C52   1.403       .  A
C52        C1976   1.489       .  S
C52          C53   1.420       .  A
C53        C2008   1.492       .  S
C53          C54   1.402       .  A
C54          H55   1.083       .  S
C57        C2191   1.526       .  S
C57          C58   1.415       .  A
C57          C62   1.413       .  A
C58        C1944   1.442       .  S
C58          C59   1.392       .  A
C59          H64   1.083       .  S
C59          C60   1.395       .  A
C60        C1912   1.482       .  S
C60          C61   1.414       .  A
C61        C1871   1.489       .  S
C61          C62   1.406       .  A
C62          H63   1.079       .  S
O65         Mg67   2.143       .  S
O65         Mg73   2.159       .  S
O65         C100   1.235       .  S
C66          O79   1.234       .  S
C66         O103   1.269       .  A
C66         H105   1.081       .  S
Mg67         O96   2.165       .  S
Mg67        O111   2.291       .  S
Mg67        O107   2.252       .  S
Mg67         O78   2.294       .  S
O68        Mg110   2.166       .  S
O68         Mg93   2.172       .  S
O68          C89   1.236       .  S
O69         C100   1.270       .  A
O69         Mg93   2.302       .  S
C70          O72   1.273       .  A
C70          O84   1.274       .  A
C70        C1848   1.484       .  S
O71          C99   1.269       .  A
O71         Mg73   2.295       .  S
O72        Mg104   2.273       .  S
Mg73         O79   2.154       .  S
Mg73         O87   2.282       .  S
Mg73         O75   2.290       .  S
C74         O112   1.271       .  A
C74          O80   1.275       .  A
C74        C1752   1.482   1_455  S
O75          C82   1.272       .  A
H76          C89   1.081       .  S
C77          O91   1.234       .  S
C77          O92   1.270       .  A
C77         H102   1.081       .  S
O78         C101   1.268       .  A
O79         Mg93   2.156       .  S
O80        Mg110   2.312       .  S
C81          O94   1.273       .  A
C81          O86   1.276       .  A
C81        C1784   1.479       .  S
C82         O109   1.275       .  A
C82        C1807   1.482       .  S
Mg83         O90   2.151       .  S
Mg83         O91   2.157       .  S
Mg83         O84   2.298       .  S
Mg83         O85   2.307       .  S
Mg83        O112   2.267       .  S
O85          C89   1.272       .  A
O86         Mg93   2.317       .  S
O87         C106   1.271   1_565  A
O88         C108   1.277       .  A
O88        Mg104   2.318       .  S
O90        Mg104   2.167       .  S
O90         C101   1.234       .  S
O91        Mg110   2.156       .  S
O92        Mg104   2.302       .  S
Mg93        O109   2.294       .  S
O94        Mg110   2.268       .  S
H95         C100   1.081       .  S
O96        Mg104   2.146       .  S
O96          C99   1.235       .  S
H97          C99   1.081       .  S
H98         C101   1.081       .  S
O103       Mg110   2.301       .  S
C106        O111   1.273   1_545  A
C106       C1711   1.480       .  S
O107        C108   1.269       .  A
C108       C2040   1.479       .  S
O113       Mg115   2.134       .  S
O113       Mg121   2.166       .  S
O113        C148   1.235       .  S
C114        O127   1.236       .  S
C114        O151   1.271       .  A
C114        H153   1.081       .  S
Mg115       O144   2.145       .  S
Mg115       O159   2.294       .  S
Mg115       O155   2.256       .  S
Mg115       O126   2.300       .  S
O116       Mg158   2.156       .  S
O116       Mg141   2.157       .  S
O116        C137   1.235       .  S
O117        C148   1.269       .  A
O117       Mg141   2.296       .  S
C118        O120   1.266       .  A
C118        O132   1.274       .  A
C118       C1935   1.482       .  S
O119        C147   1.265       .  A
O119       Mg121   2.285       .  S
O120       Mg152   2.227       .  S
Mg121       O127   2.164       .  S
Mg121       O135   2.288       .  S
Mg121       O123   2.277       .  S
C122        O160   1.272       .  A
C122        O128   1.277       .  A
C122       C1560   1.487   1_565  S
O123        C130   1.271       .  A
H124        C137   1.081       .  S
C125        O139   1.235       .  S
C125        O140   1.268       .  A
C125        H150   1.081       .  S
O126        C149   1.271       .  A
O127       Mg141   2.162       .  S
O128       Mg158   2.328       .  S
C129        O142   1.270       .  A
C129        O134   1.273       .  A
C129       C1624   1.475       .  S
C130        O157   1.271       .  A
C130       C1647   1.473       .  S
Mg131       O138   2.154       .  S
Mg131       O139   2.152       .  S
Mg131       O132   2.293       .  S
Mg131       O133   2.303       .  S
Mg131       O160   2.273       .  S
O133        C137   1.270       .  A
O134       Mg141   2.298       .  S
O135        C154   1.274       .  A
O136        C156   1.273       .  A
O136       Mg152   2.293       .  S
O138       Mg152   2.166       .  S
O138        C149   1.236       .  S
O139       Mg158   2.129       .  S
O140       Mg152   2.289       .  S
Mg141       O157   2.267       .  S
O142       Mg158   2.245       .  S
H143        C148   1.081       .  S
O144       Mg152   2.119       .  S
O144        C147   1.232       .  S
H145        C147   1.081       .  S
H146        C149   1.081       .  S
O151       Mg158   2.309       .  S
C154        O159   1.274       .  A
C154       C1583   1.484       .  S
O155        C156   1.270       .  A
C156       C1679   1.468       .  S
C161       C1688   1.484       .  S
C161        C162   1.420       .  A
C161        C166   1.396       .  A
C162       C1839   1.493       .  S
C162        C163   1.410       .  A
C163        H168   1.082       .  S
C163        C164   1.406       .  A
C164       C1487   1.492       .  S
C164        C165   1.416       .  A
C165       C1519   1.481       .  S
C165        C166   1.400       .  A
C166        H167   1.085       .  S
O169       Mg171   2.163   1_554  S
O169       Mg177   2.162       .  S
O169        C204   1.237       .  S
C170        O183   1.235   1_565  S
C170        O207   1.270       .  A
C170        H209   1.081       .  S
Mg171       O200   2.168   1_545  S
Mg171       O215   2.342   1_545  S
Mg171       O211   2.298   1_545  S
Mg171       O182   2.307       .  S
O172       Mg214   2.161   1_545  S
O172       Mg197   2.166       .  S
O172        C193   1.236       .  S
O173        C204   1.272       .  A
O173       Mg197   2.307       .  S
C174        O176   1.271       .  A
C174        O188   1.274       .  A
C174       C1455   1.477       .  S
O175        C203   1.268   1_554  A
O175       Mg177   2.296   1_565  S
O176       Mg208   2.266       .  S
Mg177       O183   2.163       .  S
Mg177       O191   2.278   1_545  S
Mg177       O179   2.291       .  S
C178        O216   1.275       .  A
C178        O184   1.276   1_556  A
C178       C1359   1.495       .  S
O179        C186   1.273       .  A
H180        C193   1.081       .  S
C181        O195   1.235       .  S
C181        O196   1.269       .  A
C181        H206   1.081   1_556  S
O182        C205   1.271       .  A
O183       Mg197   2.163       .  S
O184       Mg214   2.315   1_545  S
C185        O198   1.271       .  A
C185        O190   1.276       .  A
C185       C1903   1.480       .  S
C186        O213   1.273       .  A
C186       C1999   1.478       .  S
Mg187       O194   2.170       .  S
Mg187       O195   2.153   1_545  S
Mg187       O188   2.303   1_545  S
Mg187       O189   2.304       .  S
Mg187       O216   2.298       .  S
O189        C193   1.271   1_556  A
O190       Mg197   2.327       .  S
O191        C210   1.273       .  A
O192        C212   1.273       .  A
O192       Mg208   2.288       .  S
O194       Mg208   2.163   1_545  S
O194        C205   1.236       .  S
O195       Mg214   2.141   1_556  S
O196       Mg208   2.297       .  S
Mg197       O213   2.287       .  S
O198       Mg214   2.258   1_545  S
H199        C204   1.081   1_556  S
O200       Mg208   2.154       .  S
O200        C203   1.234       .  S
H201        C203   1.081       .  S
H202        C205   1.081       .  S
O207       Mg214   2.302       .  S
C210        O215   1.279   1_554  A
C210       C1391   1.487       .  S
O211        C212   1.275       .  A
C212       C1423   1.482       .  S
O217       Mg219   2.135   1_556  S
O217       Mg225   2.151       .  S
O217        C252   1.235       .  S
C218        O231   1.236       .  S
C218        O255   1.273       .  A
C218        H257   1.081       .  S
Mg219       O248   2.153       .  S
Mg219       O263   2.282       .  S
Mg219       O259   2.259       .  S
Mg219       O230   2.295       .  S
O220       Mg262   2.152       .  S
O220       Mg245   2.155       .  S
O220        C241   1.234       .  S
O221        C252   1.270       .  A
O221       Mg245   2.304       .  S
C222        O224   1.265       .  A
C222        O236   1.277       .  A
C222       C1967   1.484       .  S
O223        C251   1.267   1_556  A
O223       Mg225   2.293       .  S
O224       Mg256   2.221       .  S
Mg225       O231   2.171       .  S
Mg225       O239   2.288       .  S
Mg225       O227   2.286       .  S
C226        O264   1.274       .  A
C226        O232   1.277   1_554  A
C226       C1240   1.490       .  S
O227        C234   1.271       .  A
H228        C241   1.081       .  S
C229        O243   1.234       .  S
C229        O244   1.268       .  A
C229        H254   1.081   1_554  S
O230        C253   1.269       .  A
O231       Mg245   2.155       .  S
O232       Mg262   2.331       .  S
C233        O246   1.269       .  A
C233        O238   1.271       .  A
C233       C1336   1.472       .  S
C234        O261   1.268       .  A
C234       C1295   1.469       .  S
Mg235       O242   2.153       .  S
Mg235       O243   2.156       .  S
Mg235       O236   2.317       .  S
Mg235       O237   2.304       .  S
Mg235       O264   2.279       .  S
O237        C241   1.269   1_554  A
O238       Mg245   2.292       .  S
O239        C258   1.273       .  A
O240        C260   1.271       .  A
O240       Mg256   2.275       .  S
O242       Mg256   2.169       .  S
O242        C253   1.235       .  S
O243       Mg262   2.134   1_554  S
O244       Mg256   2.287       .  S
Mg245       O261   2.252       .  S
O246       Mg262   2.247       .  S
H247        C252   1.081   1_554  S
O248       Mg256   2.126       .  S
O248        C251   1.234       .  S
H249        C251   1.081       .  S
H250        C253   1.081       .  S
O255       Mg262   2.317       .  S
C258        O263   1.271   1_556  A
C258       C1263   1.473       .  S
O259        C260   1.268       .  A
C260       C1528   1.478       .  S
O265       Mg267   2.158   1_556  S
O265       Mg273   2.160       .  S
O265        C300   1.235       .  S
C266        O279   1.236   1_655  S
C266        O303   1.270       .  A
C266        H305   1.081       .  S
Mg267       O296   2.167   1_455  S
Mg267       O311   2.305   1_455  S
Mg267       O307   2.270       .  S
Mg267       O278   2.300       .  S
O268       Mg310   2.159   1_455  S
O268       Mg293   2.164       .  S
O268        C289   1.236       .  S
O269        C300   1.270       .  A
O269       Mg293   2.303       .  S
C270        O272   1.273       .  A
C270        O284   1.278       .  A
C270       C1496   1.490       .  S
O271        C299   1.272   1_556  A
O271       Mg273   2.308   1_655  S
O272       Mg304   2.283       .  S
Mg273       O279   2.151       .  S
Mg273       O287   2.268       .  S
Mg273       O275   2.330       .  S
C274        O312   1.273       .  A
C274        O280   1.274   1_554  A
C274       C1135   1.480       .  S
O275        C282   1.276       .  A
H276        C289   1.081       .  S
C277        O291   1.234       .  S
C277        O292   1.269       .  A
C277        H302   1.081       .  S
O278        C301   1.270       .  A
O279       Mg293   2.152       .  S
O280       Mg310   2.310   1_455  S
C281        O294   1.274       .  A
C281        O286   1.274       .  A
C281       C1167   1.490       .  S
C282        O309   1.274       .  A
C282       C1199   1.486       .  S
Mg283       O290   2.149       .  S
Mg283       O291   2.157   1_455  S
Mg283       O284   2.337   1_455  S
Mg283       O285   2.307       .  S
Mg283       O312   2.263       .  S
O285        C289   1.271   1_554  A
O286       Mg293   2.312       .  S
O287        C306   1.271       .  A
O288        C308   1.274       .  A
O288       Mg304   2.294       .  S
O290       Mg304   2.156   1_455  S
O290        C301   1.235       .  S
O291       Mg310   2.163   1_554  S
O292       Mg304   2.300       .  S
Mg293       O309   2.289       .  S
O294       Mg310   2.273   1_455  S
H295        C300   1.081   1_554  S
O296       Mg304   2.166       .  S
O296        C299   1.236       .  S
H297        C299   1.081       .  S
H298        C301   1.081       .  S
O303       Mg310   2.300       .  S
C306        O311   1.274   1_456  A
C306       C1103   1.474   1_455  S
O307        C308   1.271   1_455  A
C308       C1880   1.480       .  S
O313       Mg315   2.155       .  S
O313       Mg321   2.163       .  S
O313        C348   1.235       .  S
C314        O327   1.235       .  S
C314        O351   1.270       .  A
C314        H353   1.081       .  S
Mg315       O344   2.152       .  S
Mg315       O359   2.308       .  S
Mg315       O355   2.282       .  S
Mg315       O326   2.299       .  S
O316       Mg358   2.155       .  S
O316       Mg341   2.147       .  S
O316        C337   1.235       .  S
O317        C348   1.270       .  A
O317       Mg341   2.302       .  S
C318        O320   1.269       .  A
C318        O332   1.273       .  A
C318       C1071   1.471       .  S
O319        C347   1.268       .  A
O319       Mg321   2.293       .  S
O320       Mg352   2.244       .  S
Mg321       O327   2.154       .  S
Mg321       O335   2.270       .  S
Mg321       O323   2.298       .  S
C322        O360   1.269       .  A
C322        O328   1.273       .  A
C322        C920   1.474       .  S
O323        C330   1.274       .  A
H324        C337   1.081       .  S
C325        O339   1.235       .  S
C325        O340   1.269       .  A
C325        H350   1.081       .  S
O326        C349   1.270       .  A
O327       Mg341   2.159       .  S
O328       Mg358   2.293       .  S
C329        O342   1.268       .  A
C329        O334   1.274       .  A
C329       C1016   1.475       .  S
C330        O357   1.270       .  A
C330        C984   1.472       .  S
Mg331       O338   2.137       .  S
Mg331       O339   2.159       .  S
Mg331       O332   2.299       .  S
Mg331       O333   2.302       .  S
Mg331       O360   2.249       .  S
O333        C337   1.269       .  A
O334       Mg341   2.314       .  S
O335        C354   1.272       .  A
O336        C356   1.270       .  A
O336       Mg352   2.278       .  S
O338       Mg352   2.151       .  S
O338        C349   1.235       .  S
O339       Mg358   2.139       .  S
O340       Mg352   2.295       .  S
Mg341       O357   2.256       .  S
O342       Mg358   2.248       .  S
H343        C348   1.081       .  S
O344       Mg352   2.139       .  S
O344        C347   1.234       .  S
H345        C347   1.081       .  S
H346        C349   1.081       .  S
O351       Mg358   2.302       .  S
C354        O359   1.275       .  A
C354        C943   1.473   1_545  S
O355        C356   1.274       .  A
C356       C1048   1.476       .  S
C361       C1208   1.499       .  S
C361        C362   1.419       .  A
C361        C366   1.412       .  A
C362       C1327   1.480       .  S
C362        C363   1.396       .  A
C363        H368   1.085       .  S
C363        C364   1.395       .  A
C364       C1007   1.483       .  S
C364        C365   1.418       .  A
C365        C879   1.497       .  S
C365        C366   1.414       .  A
C366        H367   1.082       .  S
C369       C1432   1.489       .  S
C369        C370   1.420       .  A
C369        C374   1.404       .  A
C370       C1176   1.495       .  S
C370        C371   1.406       .  A
C371        H376   1.082       .  S
C371        C372   1.402       .  A
C372        C856   1.489       .  S
C372        C373   1.415       .  A
C373        C975   1.489       .  S
C373        C374   1.402       .  A
C374        H375   1.083       .  S
O377       Mg379   2.152       .  S
O377       Mg385   2.154       .  S
O377        C412   1.234       .  S
C378        O391   1.235       .  S
C378        O415   1.269       .  A
C378        H417   1.081       .  S
Mg379       O408   2.159       .  S
Mg379       O423   2.308       .  S
Mg379       O419   2.258       .  S
Mg379       O390   2.302       .  S
O380       Mg422   2.163       .  S
O380       Mg405   2.151       .  S
O380        C401   1.234       .  S
O381        C412   1.269       .  A
O381       Mg405   2.298       .  S
C382        O384   1.273       .  A
C382        O396   1.272       .  A
C382        C783   1.471       .  S
O383        C411   1.272       .  A
O383       Mg385   2.311       .  S
O384       Mg416   2.267       .  S
Mg385       O391   2.148       .  S
Mg385       O399   2.258       .  S
Mg385       O387   2.329       .  S
C386        O424   1.274       .  A
C386        O392   1.274       .  A
C386        C687   1.488   1_545  S
O387        C394   1.276       .  A
H388        C401   1.081       .  S
C389        O403   1.236       .  S
C389        O404   1.270       .  A
C389        H414   1.081       .  S
O390        C413   1.269       .  A
O391       Mg405   2.158       .  S
O392       Mg422   2.302       .  S
C393        O406   1.272       .  A
C393        O398   1.274       .  A
C393        C760   1.484       .  S
C394        O421   1.274       .  A
C394        C888   1.487       .  S
Mg395       O402   2.164       .  S
Mg395       O403   2.166       .  S
Mg395       O396   2.285       .  S
Mg395       O397   2.290       .  S
Mg395       O424   2.297       .  S
O397        C401   1.268       .  A
O398       Mg405   2.309       .  S
O399        C418   1.270       .  A
O400        C420   1.278       .  A
O400       Mg416   2.334       .  S
O402       Mg416   2.161       .  S
O402        C413   1.234       .  S
O403       Mg422   2.146       .  S
O404       Mg416   2.303       .  S
Mg405       O421   2.276       .  S
O406       Mg422   2.254       .  S
H407        C412   1.081       .  S
O408       Mg416   2.163       .  S
O408        C411   1.237       .  S
H409        C411   1.081       .  S
H410        C413   1.081       .  S
O415       Mg422   2.298       .  S
C418        O423   1.274       .  A
C418        C719   1.471   1_655  S
O419        C420   1.270       .  A
C420        C815   1.488       .  S
O425       Mg427   2.137       .  S
O425       Mg433   2.146       .  S
O425        C460   1.235       .  S
C426        O439   1.236       .  S
C426        O463   1.271       .  A
C426        H465   1.081       .  S
Mg427       O456   2.161       .  S
Mg427       O471   2.316       .  S
Mg427       O467   2.251       .  S
Mg427       O438   2.299       .  S
O428       Mg470   2.161       .  S
O428       Mg453   2.162       .  S
O428        C449   1.235       .  S
O429        C460   1.269       .  A
O429       Mg453   2.299       .  S
C430        O432   1.270       .  A
C430        O444   1.274       .  A
C430        C847   1.481       .  S
O431        C459   1.268       .  A
O431       Mg433   2.295       .  S
O432       Mg464   2.254       .  S
Mg433       O439   2.159       .  S
Mg433       O447   2.273       .  S
Mg433       O435   2.277       .  S
C434        O472   1.271       .  A
C434        O440   1.276       .  A
C434        C536   1.485   1_655  S
O435        C442   1.270       .  A
H436        C449   1.081       .  S
C437        O451   1.235       .  S
C437        O452   1.269       .  A
C437        H462   1.081       .  S
O438        C461   1.270       .  A
O439       Mg453   2.161       .  S
O440       Mg470   2.330       .  S
C441        O454   1.269       .  A
C441        O446   1.273       .  A
C441        C655   1.467       .  S
C442        O469   1.272       .  A
C442        C632   1.474       .  S
Mg443       O450   2.150       .  S
Mg443       O451   2.154       .  S
Mg443       O444   2.306       .  S
Mg443       O445   2.303       .  S
Mg443       O472   2.264       .  S
O445        C449   1.270       .  A
O446       Mg453   2.293       .  S
O447        C466   1.272       .  A
O448        C468   1.274       .  A
O448       Mg464   2.294       .  S
O450       Mg464   2.158       .  S
O450        C461   1.235       .  S
O451       Mg470   2.143       .  S
O452       Mg464   2.298       .  S
Mg453       O469   2.277       .  S
O454       Mg470   2.255       .  S
H455        C460   1.081       .  S
O456       Mg464   2.142       .  S
O456        C459   1.234       .  S
H457        C459   1.081       .  S
H458        C461   1.081       .  S
O463       Mg470   2.310       .  S
C466        O471   1.274       .  A
C466        C559   1.482       .  S
O467        C468   1.269       .  A
C468        C600   1.474       .  S
C473       C1464   1.493       .  S
C473        C474   1.415       .  A
C473        C478   1.403       .  A
C474       C1304   1.484       .  S
C474        C475   1.402       .  A
C475        H480   1.083       .  S
C475        C476   1.403       .  A
C476        C591   1.486       .  S
C476        C477   1.416       .  A
C477        C751   1.490       .  S
C477        C478   1.405       .  A
C478        H479   1.082       .  S
C481       C2127   1.478   1_655  S
C481        C482   1.413   1_655  A
C481        C486   1.402       .  A
C482       C1775   1.486       .  S
C482        C483   1.400   1_455  A
C483        H488   1.084   1_655  S
C483        C484   1.405       .  A
C484        C664   1.483       .  S
C484        C485   1.419       .  A
C485        C824   1.492       .  S
C485        C486   1.402       .  A
C486        H487   1.084       .  S
C489       C1656   1.481       .  S
C489        C490   1.417       .  A
C489        C494   1.400       .  A
C490       C2159   1.481       .  S
C490        C491   1.400       .  A
C491        H496   1.084       .  S
C491        C492   1.398       .  A
C492       C1080   1.481       .  S
C492        C493   1.416       .  A
C493        C623   1.482       .  S
C493        C494   1.401       .  A
C494        H495   1.085       .  S
C497       C1615   1.486   1_545  S
C497        C498   1.416       .  A
C497        C502   1.402       .  A
C498       C1816   1.493   1_545  S
C498        C499   1.405       .  A
C499        H504   1.084       .  S
C499        C500   1.406       .  A
C500       C1039   1.490       .  S
C500        C501   1.418       .  A
C501        C792   1.487       .  S
C501        C502   1.402       .  A
C502        H503   1.084       .  S
C505       C1144   1.503   1_655  S
C505        C506   1.420   1_665  A
C505        C510   1.426       .  A
C506       C1400   1.504       .  S
C506        C507   1.424       .  A
C507       C1231   1.509       .  S
C507        C508   1.431   1_455  A
C508       C1112   1.508       .  S
C508        C509   1.435   1_545  A
C509       C1368   1.513       .  S
C509        C510   1.432       .  A
C510       C1272   1.506       .  S
C511       C2095   1.513       .  S
C511        C512   1.429       .  A
C511        C516   1.427       .  A
C512       C1743   1.512       .  S
C512        C513   1.435       .  A
C513       C1592   1.503       .  S
C513        C514   1.432       .  A
C514       C2063   1.514       .  S
C514        C515   1.427       .  A
C515       C1720   1.506       .  S
C515        C516   1.427       .  A
C516       C1551   1.502       .  S
C517        C568   1.505       .  S
C517        C518   1.422       .  A
C517        C522   1.426       .  A
C518        C696   1.497       .  S
C518        C519   1.424       .  A
C519        C952   1.499       .  S
C519        C520   1.420       .  A
C520        C527   1.502       .  S
C520        C521   1.421       .  A
C521        C728   1.496       .  S
C521        C522   1.424       .  A
C522        C911   1.497       .  S
C523        H533   1.085       .  S
C523        C524   1.400       .  A
C523        C528   1.406       .  A
C524        C529   1.490       .  S
C524        C525   1.415       .  A
C525        C526   1.410       .  A
C525        C530   1.520       .  S
C526        H531   1.081       .  S
C526        C527   1.409       .  A
C527        C528   1.423       .  A
C528        C532   1.519       .  S
C529        C534   1.414       .  A
C529        C538   1.405       .  A
C530        F546   1.383       .  S
C530        F547   1.381       .  S
C530        F548   1.384       .  S
C532        F543   1.382       .  S
C532        F544   1.384       .  S
C532        F545   1.380       .  S
C534        C535   1.405       .  A
C534        C539   1.516       .  S
C535        H540   1.084       .  S
C535        C536   1.403       .  A
C536        C537   1.419       .  A
C537        C538   1.413       .  A
C537        C541   1.516   1_455  S
C538        H542   1.083       .  S
C539        F552   1.385       .  S
C539        F553   1.380       .  S
C539        F554   1.381       .  S
C541        F549   1.380       .  S
C541        F550   1.383       .  S
C541        F551   1.385   1_655  S
C555        H565   1.083       .  S
C555        C556   1.407       .  A
C555        C560   1.413       .  A
C556        C561   1.493       .  S
C556        C557   1.417       .  A
C557        C558   1.407       .  A
C557        C562   1.520       .  S
C558        H563   1.083       .  S
C558        C559   1.403       .  A
C559        C560   1.415       .  A
C560        C564   1.516       .  S
C561        C566   1.416       .  A
C561        C570   1.400       .  A
C562        F578   1.382       .  S
C562        F579   1.383       .  S
C562        F580   1.385       .  S
C564        F575   1.382       .  S
C564        F576   1.385       .  S
C564        F577   1.384       .  S
C566        C567   1.409       .  A
C566        C571   1.519       .  S
C567        H572   1.080       .  S
C567        C568   1.406       .  A
C568        C569   1.424       .  A
C569        C570   1.408       .  A
C569        C573   1.516       .  S
C570        H574   1.085       .  S
C571        F584   1.385       .  S
C571        F585   1.382       .  S
C571        F586   1.383       .  S
C573        F581   1.384       .  S
C573        F582   1.377       .  S
C573        F583   1.383       .  S
C587        H597   1.083       .  S
C587        C588   1.402       .  A
C587        C592   1.406       .  A
C588        C593   1.485       .  S
C588        C589   1.417       .  A
C589        C590   1.405       .  A
C589        C594   1.519       .  S
C590        H595   1.082       .  S
C590        C591   1.403       .  A
C591        C592   1.417       .  A
C592        C596   1.519       .  S
C593        C598   1.417       .  A
C593        C602   1.405       .  A
C594        F610   1.382       .  S
C594        F611   1.383       .  S
C594        F612   1.385       .  S
C596        F607   1.385       .  S
C596        F608   1.381       .  S
C596        F609   1.383       .  S
C598        C599   1.402       .  A
C598        C603   1.519       .  S
C599        H604   1.084       .  S
C599        C600   1.402       .  A
C600        C601   1.415       .  A
C601        C602   1.409       .  A
C601        C605   1.517       .  S
C602        H606   1.083       .  S
C603        F616   1.385       .  S
C603        F617   1.381       .  S
C603        F618   1.381       .  S
C605        F613   1.385       .  S
C605        F614   1.383       .  S
C605        F615   1.383       .  S
C619        H629   1.085       .  S
C619        C620   1.400       .  A
C619        C624   1.403       .  A
C620        C625   1.474       .  S
C620        C621   1.412       .  A
C621        C622   1.399       .  A
C621        C626   1.520       .  S
C622        H627   1.082       .  S
C622        C623   1.404       .  A
C623        C624   1.422       .  A
C624        C628   1.520       .  S
C625        C630   1.414       .  A
C625        C634   1.396       .  A
C626        F642   1.382       .  S
C626        F643   1.382       .  S
C626        F644   1.385       .  S
C628        F639   1.384       .  S
C628        F640   1.383       .  S
C628        F641   1.379       .  S
C630        C631   1.409       .  A
C630        C635   1.519       .  S
C631        H636   1.083       .  S
C631        C632   1.404       .  A
C632        C633   1.421       .  A
C633        C634   1.400       .  A
C633        C637   1.522       .  S
C634        H638   1.084       .  S
C635        F648   1.384       .  S
C635        F649   1.383       .  S
C635        F650   1.382       .  S
C637        F645   1.385       .  S
C637        F646   1.384       .  S
C637        F647   1.382       .  S
C651        H661   1.083       .  S
C651        C652   1.399       .  A
C651        C656   1.401       .  A
C652        C657   1.480       .  S
C652        C653   1.419       .  A
C653        C654   1.408       .  A
C653        C658   1.518       .  S
C654        H659   1.083       .  S
C654        C655   1.399       .  A
C655        C656   1.415       .  A
C656        C660   1.519       .  S
C657        C662   1.417       .  A
C657        C666   1.399       .  A
C658        F674   1.382       .  S
C658        F675   1.383   1_655  S
C658        F676   1.385       .  S
C660        F671   1.385       .  S
C660        F672   1.382       .  S
C660        F673   1.382       .  S
C662        C663   1.406       .  A
C662        C667   1.519   1_655  S
C663        H668   1.083   1_655  S
C663        C664   1.403       .  A
C664        C665   1.420       .  A
C665        C666   1.404       .  A
C665        C669   1.520       .  S
C666        H670   1.083       .  S
C667        F680   1.384       .  S
C667        F681   1.382   1_455  S
C667        F682   1.382       .  S
C669        F677   1.385       .  S
C669        F678   1.383       .  S
C669        F679   1.381       .  S
C683        H693   1.083       .  S
C683        C684   1.405       .  A
C683        C688   1.412       .  A
C684        C689   1.494       .  S
C684        C685   1.419       .  A
C685        C686   1.408       .  A
C685        C690   1.521       .  S
C686        H691   1.083       .  S
C686        C687   1.406       .  A
C687        C688   1.417       .  A
C688        C692   1.515       .  S
C689        C694   1.418       .  A
C689        C698   1.402       .  A
C690        F706   1.382       .  S
C690        F707   1.382       .  S
C690        F708   1.385       .  S
C692        F703   1.382       .  S
C692        F704   1.385       .  S
C692        F705   1.383       .  S
C694        C695   1.407       .  A
C694        C699   1.520       .  S
C695        H700   1.080       .  S
C695        C696   1.403       .  A
C696        C697   1.420       .  A
C697        C698   1.407       .  A
C697        C701   1.518       .  S
C698        H702   1.084       .  S
C699        F712   1.385       .  S
C699        F713   1.381       .  S
C699        F714   1.383       .  S
C701        F709   1.383       .  S
C701        F710   1.380       .  S
C701        F711   1.382       .  S
C715        H725   1.083       .  S
C715        C716   1.406       .  A
C715        C720   1.412       .  A
C716        C721   1.483       .  S
C716        C717   1.414       .  A
C717        C718   1.401       .  A
C717        C722   1.517       .  S
C718        H723   1.084       .  S
C718        C719   1.400       .  A
C719        C720   1.413       .  A
C720        C724   1.514   1_455  S
C721        C726   1.412       .  A
C721        C730   1.402       .  A
C722        F738   1.380       .  S
C722        F739   1.383       .  S
C722        F740   1.384       .  S
C724        F735   1.384       .  S
C724        F736   1.383       .  S
C724        F737   1.383       .  S
C726        C727   1.401       .  A
C726        C731   1.519       .  S
C727        H732   1.078       .  S
C727        C728   1.403       .  A
C728        C729   1.423       .  A
C729        C730   1.408       .  A
C729        C733   1.518       .  S
C730        H734   1.085       .  S
C731        F744   1.384       .  S
C731        F745   1.382       .  S
C731        F746   1.382       .  S
C733        F741   1.384       .  S
C733        F742   1.380       .  S
C733        F743   1.384       .  S
C747        H757   1.083       .  S
C747        C748   1.401       .  A
C747        C752   1.405       .  A
C748        C753   1.485       .  S
C748        C749   1.416       .  A
C749        C750   1.408       .  A
C749        C754   1.521       .  S
C750        H755   1.080       .  S
C750        C751   1.406       .  A
C751        C752   1.419       .  A
C752        C756   1.520       .  S
C753        C758   1.415       .  A
C753        C762   1.404   1_565  A
C754        F770   1.381   1_565  S
C754        F771   1.382       .  S
C754        F772   1.385       .  S
C756        F767   1.385       .  S
C756        F768   1.381       .  S
C756        F769   1.383       .  S
C758        C759   1.405       .  A
C758        C763   1.522       .  S
C759        H764   1.083       .  S
C759        C760   1.407   1_565  A
C760        C761   1.418       .  A
C761        C762   1.409       .  A
C761        C765   1.518       .  S
C762        H766   1.083       .  S
C763        F776   1.385       .  S
C763        F777   1.381       .  S
C763        F778   1.382       .  S
C765        F773   1.385       .  S
C765        F774   1.383       .  S
C765        F775   1.382       .  S
C779        H789   1.083       .  S
C779        C780   1.402       .  A
C779        C784   1.405       .  A
C780        C785   1.483       .  S
C780        C781   1.421       .  A
C781        C782   1.405       .  A
C781        C786   1.517       .  S
C782        H787   1.085       .  S
C782        C783   1.398       .  A
C783        C784   1.418       .  A
C784        C788   1.522       .  S
C785        C790   1.415       .  A
C785        C794   1.402       .  A
C786        F802   1.383       .  S
C786        F803   1.379       .  S
C786        F804   1.384       .  S
C788        F799   1.385       .  S
C788        F800   1.382       .  S
C788        F801   1.384       .  S
C790        C791   1.407       .  A
C790        C795   1.519       .  S
C791        H796   1.083       .  S
C791        C792   1.406       .  A
C792        C793   1.420       .  A
C793        C794   1.406       .  A
C793        C797   1.518   1_545  S
C794        H798   1.085       .  S
C795        F808   1.384       .  S
C795        F809   1.383       .  S
C795        F810   1.381       .  S
C797        F805   1.383       .  S
C797        F806   1.381       .  S
C797        F807   1.377       .  S
C811        H821   1.083       .  S
C811        C812   1.399       .  A
C811        C816   1.406       .  A
C812        C817   1.488       .  S
C812        C813   1.417       .  A
C813        C814   1.413       .  A
C813        C818   1.519       .  S
C814        H819   1.083       .  S
C814        C815   1.406       .  A
C815        C816   1.423       .  A
C816        C820   1.521       .  S
C817        C822   1.416       .  A
C817        C826   1.401       .  A
C818        F834   1.382       .  S
C818        F835   1.382       .  S
C818        F836   1.385       .  S
C820        F831   1.384       .  S
C820        F832   1.385       .  S
C820        F833   1.383       .  S
C822        C823   1.408       .  A
C822        C827   1.519       .  S
C823        H828   1.081       .  S
C823        C824   1.404       .  A
C824        C825   1.422       .  A
C825        C826   1.408       .  A
C825        C829   1.521   1_655  S
C826        H830   1.084       .  S
C827        F840   1.384       .  S
C827        F841   1.382       .  S
C827        F842   1.382       .  S
C829        F837   1.385       .  S
C829        F838   1.383       .  S
C829        F839   1.382       .  S
C843        H853   1.083       .  S
C843        C844   1.398   1_655  A
C843        C848   1.405       .  A
C844        C849   1.486       .  S
C844        C845   1.417       .  A
C845        C846   1.408       .  A
C845        C850   1.517       .  S
C846        H851   1.083       .  S
C846        C847   1.404   1_455  A
C847        C848   1.422       .  A
C848        C852   1.521       .  S
C849        C854   1.415       .  A
C849        C858   1.403       .  A
C850        F866   1.382       .  S
C850        F867   1.381       .  S
C850        F868   1.384       .  S
C852        F863   1.383       .  S
C852        F864   1.384       .  S
C852        F865   1.384       .  S
C854        C855   1.404       .  A
C854        C859   1.520       .  S
C855        H860   1.081       .  S
C855        C856   1.404       .  A
C856        C857   1.419       .  A
C857        C858   1.408       .  A
C857        C861   1.521       .  S
C858        H862   1.083       .  S
C859        F872   1.385       .  S
C859        F873   1.382   1_455  S
C859        F874   1.383       .  S
C861        F869   1.380       .  S
C861        F870   1.382       .  S
C861        F871   1.385       .  S
C875        H885   1.083       .  S
C875        C876   1.403       .  A
C875        C880   1.412       .  A
C876        C881   1.490       .  S
C876        C877   1.414       .  A
C877        C878   1.407       .  A
C877        C882   1.520       .  S
C878        H883   1.080       .  S
C878        C879   1.406       .  A
C879        C880   1.422       .  A
C880        C884   1.520       .  S
C881        C886   1.415   1_455  A
C881        C890   1.405       .  A
C882        F898   1.383       .  S
C882        F899   1.381       .  S
C882        F900   1.384       .  S
C884        F895   1.381       .  S
C884        F896   1.385       .  S
C884        F897   1.383       .  S
C886        C887   1.406       .  A
C886        C891   1.520       .  S
C887        H892   1.083       .  S
C887        C888   1.405       .  A
C888        C889   1.420   1_655  A
C889        C890   1.413       .  A
C889        C893   1.518       .  S
C890        H894   1.083       .  S
C891        F904   1.385       .  S
C891        F905   1.382       .  S
C891        F906   1.381       .  S
C893        F901   1.382       .  S
C893        F902   1.383       .  S
C893        F903   1.385       .  S
C907        H917   1.085       .  S
C907        C908   1.398       .  A
C907        C912   1.404       .  A
C908        C913   1.482       .  S
C908        C909   1.413       .  A
C909        C910   1.406       .  A
C909        C914   1.518       .  S
C910        H915   1.080       .  S
C910        C911   1.406       .  A
C911        C912   1.424       .  A
C912        C916   1.516       .  S
C913        C918   1.420       .  A
C913        C922   1.401       .  A
C914        F930   1.383       .  S
C914        F931   1.381       .  S
C914        F932   1.384       .  S
C916        F927   1.384       .  S
C916        F928   1.383       .  S
C916        F929   1.376       .  S
C918        C919   1.403       .  A
C918        C923   1.516       .  S
C919        H924   1.085       .  S
C919        C920   1.400       .  A
C920        C921   1.418       .  A
C921        C922   1.405       .  A
C921        C925   1.519       .  S
C922        H926   1.084       .  S
C923        F936   1.384       .  S
C923        F937   1.383       .  S
C923        F938   1.380       .  S
C925        F933   1.383       .  S
C925        F934   1.384       .  S
C925        F935   1.385       .  S
C939        H949   1.081       .  S
C939        C940   1.406       .  A
C939        C944   1.411       .  A
C940        C945   1.489       .  S
C940        C941   1.416       .  A
C941        C942   1.404       .  A
C941        C946   1.515       .  S
C942        H947   1.084       .  S
C942        C943   1.399       .  A
C943        C944   1.412       .  A
C944        C948   1.514   1_565  S
C945        C950   1.413       .  A
C945        C954   1.401       .  A
C946        F962   1.382       .  S
C946        F963   1.382       .  S
C946        F964   1.385       .  S
C948        F959   1.383       .  S
C948        F960   1.384   1_545  S
C948        F961   1.383       .  S
C950        C951   1.407       .  A
C950        C955   1.519       .  S
C951        H956   1.080       .  S
C951        C952   1.406       .  A
C952        C953   1.422       .  A
C953        C954   1.407       .  A
C953        C957   1.516       .  S
C954        H958   1.085       .  S
C955        F968   1.385       .  S
C955        F969   1.382       .  S
C955        F970   1.382       .  S
C957        F965   1.383       .  S
C957        F966   1.378       .  S
C957        F967   1.384       .  S
C971        H981   1.083       .  S
C971        C972   1.403       .  A
C971        C976   1.408       .  A
C972        C977   1.482       .  S
C972        C973   1.415       .  A
C973        C974   1.404       .  A
C973        C978   1.520       .  S
C974        H979   1.080       .  S
C974        C975   1.403       .  A
C975        C976   1.420       .  A
C976        C980   1.521       .  S
C977        C982   1.422       .  A
C977        C986   1.401   1_565  A
C978        F994   1.382       .  S
C978        F995   1.383       .  S
C978        F996   1.384       .  S
C980        F991   1.384       .  S
C980        F992   1.381       .  S
C980        F993   1.383       .  S
C982        C983   1.406   1_565  A
C982        C987   1.517       .  S
C983        H988   1.085       .  S
C983        C984   1.399       .  A
C984        C985   1.417       .  A
C985        C986   1.404       .  A
C985        C989   1.520       .  S
C986        H990   1.083       .  S
C987       F1000   1.383       .  S
C987       F1001   1.384       .  S
C987       F1002   1.379       .  S
C989        F997   1.385       .  S
C989        F998   1.384       .  S
C989        F999   1.382       .  S
C1003      H1013   1.084       .  S
C1003      C1004   1.402       .  A
C1003      C1008   1.405       .  A
C1004      C1009   1.488       .  S
C1004      C1005   1.418       .  A
C1005      C1006   1.407       .  A
C1005      C1010   1.520       .  S
C1006      H1011   1.083       .  S
C1006      C1007   1.402       .  A
C1007      C1008   1.421       .  A
C1008      C1012   1.520       .  S
C1009      C1014   1.421       .  A
C1009      C1018   1.400       .  A
C1010      F1026   1.381       .  S
C1010      F1027   1.383       .  S
C1010      F1028   1.384       .  S
C1012      F1023   1.383       .  S
C1012      F1024   1.382       .  S
C1012      F1025   1.381       .  S
C1014      C1015   1.410       .  A
C1014      C1019   1.518       .  S
C1015      H1020   1.084       .  S
C1015      C1016   1.402       .  A
C1016      C1017   1.418       .  A
C1017      C1018   1.403       .  A
C1017      C1021   1.521       .  S
C1018      H1022   1.083       .  S
C1019      F1032   1.385       .  S
C1019      F1033   1.382       .  S
C1019      F1034   1.383       .  S
C1021      F1029   1.384       .  S
C1021      F1030   1.383       .  S
C1021      F1031   1.383       .  S
C1035      H1045   1.085       .  S
C1035      C1036   1.404       .  A
C1035      C1040   1.407       .  A
C1036      C1041   1.486       .  S
C1036      C1037   1.413       .  A
C1037      C1038   1.407       .  A
C1037      C1042   1.518   1_545  S
C1038      H1043   1.082   1_545  S
C1038      C1039   1.407       .  A
C1039      C1040   1.420       .  A
C1040      C1044   1.519       .  S
C1041      C1046   1.419       .  A
C1041      C1050   1.405       .  A
C1042      F1058   1.382       .  S
C1042      F1059   1.381       .  S
C1042      F1060   1.385       .  S
C1044      F1055   1.381       .  S
C1044      F1056   1.383       .  S
C1044      F1057   1.381       .  S
C1046      C1047   1.403       .  A
C1046      C1051   1.519       .  S
C1047      H1052   1.083       .  S
C1047      C1048   1.399       .  A
C1048      C1049   1.417       .  A
C1049      C1050   1.411       .  A
C1049      C1053   1.518       .  S
C1050      H1054   1.083       .  S
C1051      F1064   1.384       .  S
C1051      F1065   1.381       .  S
C1051      F1066   1.378   1_545  S
C1053      F1061   1.382       .  S
C1053      F1062   1.384       .  S
C1053      F1063   1.384       .  S
C1067      H1077   1.084       .  S
C1067      C1068   1.403       .  A
C1067      C1072   1.405       .  A
C1068      C1073   1.481       .  S
C1068      C1069   1.415       .  A
C1069      C1070   1.403       .  A
C1069      C1074   1.521       .  S
C1070      H1075   1.083       .  S
C1070      C1071   1.404       .  A
C1071      C1072   1.417       .  A
C1072      C1076   1.517       .  S
C1073      C1078   1.417       .  A
C1073      C1082   1.400       .  A
C1074      F1090   1.382       .  S
C1074      F1091   1.383       .  S
C1074      F1092   1.385       .  S
C1076      F1087   1.382       .  S
C1076      F1088   1.383       .  S
C1076      F1089   1.381       .  S
C1078      C1079   1.405       .  A
C1078      C1083   1.520       .  S
C1079      H1084   1.083       .  S
C1079      C1080   1.402       .  A
C1080      C1081   1.417       .  A
C1081      C1082   1.402       .  A
C1081      C1085   1.516       .  S
C1082      H1086   1.084       .  S
C1083      F1096   1.384       .  S
C1083      F1097   1.382       .  S
C1083      F1098   1.383       .  S
C1085      F1093   1.382       .  S
C1085      F1094   1.381       .  S
C1085      F1095   1.384       .  S
C1099      H1109   1.080       .  S
C1099      C1100   1.402   1_454  A
C1099      C1104   1.405       .  A
C1100      C1105   1.487   1_556  S
C1100      C1101   1.421       .  A
C1101      C1102   1.409       .  A
C1101      C1106   1.516       .  S
C1102      H1107   1.085       .  S
C1102      C1103   1.399       .  A
C1103      C1104   1.414   1_656  A
C1104      C1108   1.519       .  S
C1105      C1110   1.413   1_654  A
C1105      C1114   1.398       .  A
C1106      F1122   1.380       .  S
C1106      F1123   1.383       .  S
C1106      F1124   1.381   1_556  S
C1108      F1119   1.384       .  S
C1108      F1120   1.383       .  S
C1108      F1121   1.383   1_554  S
C1110      C1111   1.409       .  A
C1110      C1115   1.518       .  S
C1111      H1116   1.083       .  S
C1111      C1112   1.409   1_456  A
C1112      C1113   1.427       .  A
C1113      C1114   1.405       .  A
C1113      C1117   1.515       .  S
C1114      H1118   1.085       .  S
C1115      F1128   1.384       .  S
C1115      F1129   1.380       .  S
C1115      F1130   1.383   1_455  S
C1117      F1125   1.383       .  S
C1117      F1126   1.373       .  S
C1117      F1127   1.383       .  S
C1131      H1141   1.083       .  S
C1131      C1132   1.404   1_556  A
C1131      C1136   1.410       .  A
C1132      C1137   1.484       .  S
C1132      C1133   1.416   1_455  A
C1133      C1134   1.403       .  A
C1133      C1138   1.519       .  S
C1134      H1139   1.084       .  S
C1134      C1135   1.403   1_655  A
C1135      C1136   1.417   1_554  A
C1136      C1140   1.517       .  S
C1137      C1142   1.416       .  A
C1137      C1146   1.403   1_454  A
C1138      F1154   1.381       .  S
C1138      F1155   1.379       .  S
C1138      F1156   1.385       .  S
C1140      F1151   1.385       .  S
C1140      F1152   1.382       .  S
C1140      F1153   1.383       .  S
C1142      C1143   1.403       .  A
C1142      C1147   1.520       .  S
C1143      H1148   1.080       .  S
C1143      C1144   1.406       .  A
C1144      C1145   1.422   1_454  A
C1145      C1146   1.407       .  A
C1145      C1149   1.519       .  S
C1146      H1150   1.085       .  S
C1147      F1160   1.383       .  S
C1147      F1161   1.383       .  S
C1147      F1162   1.382       .  S
C1149      F1157   1.383   1_655  S
C1149      F1158   1.380       .  S
C1149      F1159   1.383       .  S
C1163      H1173   1.083       .  S
C1163      C1164   1.404       .  A
C1163      C1168   1.411       .  A
C1164      C1169   1.487       .  S
C1164      C1165   1.415       .  A
C1165      C1166   1.406       .  A
C1165      C1170   1.522       .  S
C1166      H1171   1.082       .  S
C1166      C1167   1.407       .  A
C1167      C1168   1.421       .  A
C1168      C1172   1.519       .  S
C1169      C1174   1.416       .  A
C1169      C1178   1.401       .  A
C1170      F1186   1.381       .  S
C1170      F1187   1.381       .  S
C1170      F1188   1.384       .  S
C1172      F1183   1.385       .  S
C1172      F1184   1.384   1_455  S
C1172      F1185   1.383       .  S
C1174      C1175   1.407       .  A
C1174      C1179   1.519       .  S
C1175      H1180   1.079       .  S
C1175      C1176   1.405       .  A
C1176      C1177   1.423       .  A
C1177      C1178   1.406       .  A
C1177      C1181   1.521       .  S
C1178      H1182   1.084       .  S
C1179      F1192   1.385       .  S
C1179      F1193   1.381       .  S
C1179      F1194   1.382       .  S
C1181      F1189   1.382       .  S
C1181      F1190   1.383       .  S
C1181      F1191   1.385       .  S
C1195      H1205   1.083       .  S
C1195      C1196   1.407       .  A
C1195      C1200   1.415       .  A
C1196      C1201   1.496       .  S
C1196      C1197   1.418       .  A
C1197      C1198   1.408       .  A
C1197      C1202   1.519       .  S
C1198      H1203   1.084       .  S
C1198      C1199   1.402       .  A
C1199      C1200   1.417       .  A
C1200      C1204   1.515       .  S
C1201      C1206   1.415       .  A
C1201      C1210   1.403       .  A
C1202      F1218   1.382       .  S
C1202      F1219   1.382       .  S
C1202      F1220   1.385       .  S
C1204      F1215   1.385       .  S
C1204      F1216   1.382       .  S
C1204      F1217   1.383       .  S
C1206      C1207   1.411       .  A
C1206      C1211   1.518       .  S
C1207      H1212   1.082       .  S
C1207      C1208   1.407       .  A
C1208      C1209   1.422       .  A
C1209      C1210   1.410       .  A
C1209      C1213   1.516       .  S
C1210      H1214   1.085       .  S
C1211      F1224   1.385       .  S
C1211      F1225   1.383       .  S
C1211      F1226   1.382       .  S
C1213      F1221   1.383       .  S
C1213      F1222   1.379       .  S
C1213      F1223   1.384       .  S
C1227      H1237   1.085       .  S
C1227      C1228   1.400       .  A
C1227      C1232   1.407       .  A
C1228      C1233   1.493       .  S
C1228      C1229   1.416   1_554  A
C1229      C1230   1.411       .  A
C1229      C1234   1.520       .  S
C1230      H1235   1.081       .  S
C1230      C1231   1.409   1_556  A
C1231      C1232   1.423       .  A
C1232      C1236   1.512       .  S
C1233      C1238   1.418       .  A
C1233      C1242   1.401       .  A
C1234      F1250   1.381       .  S
C1234      F1251   1.380       .  S
C1234      F1252   1.385       .  S
C1236      F1247   1.382       .  S
C1236      F1248   1.383       .  S
C1236      F1249   1.375       .  S
C1238      C1239   1.413       .  A
C1238      C1243   1.516   1_554  S
C1239      H1244   1.083   1_554  S
C1239      C1240   1.405       .  A
C1240      C1241   1.422       .  A
C1241      C1242   1.410       .  A
C1241      C1245   1.520       .  S
C1242      H1246   1.083       .  S
C1243      F1256   1.384       .  S
C1243      F1257   1.381   1_556  S
C1243      F1258   1.379       .  S
C1245      F1253   1.383       .  S
C1245      F1254   1.384       .  S
C1245      F1255   1.384       .  S
C1259      H1269   1.084       .  S
C1259      C1260   1.400   1_554  A
C1259      C1264   1.403   1_554  A
C1260      C1265   1.482       .  S
C1260      C1261   1.421       .  A
C1261      C1262   1.409       .  A
C1261      C1266   1.518       .  S
C1262      H1267   1.084       .  S
C1262      C1263   1.401       .  A
C1263      C1264   1.417       .  A
C1264      C1268   1.521   1_556  S
C1265      C1270   1.410       .  A
C1265      C1274   1.399   1_556  A
C1266      F1282   1.383       .  S
C1266      F1283   1.381       .  S
C1266      F1284   1.383       .  S
C1268      F1279   1.385       .  S
C1268      F1280   1.382       .  S
C1268      F1281   1.383   1_554  S
C1270      C1271   1.406       .  A
C1270      C1275   1.518       .  S
C1271      H1276   1.081       .  S
C1271      C1272   1.409   1_556  A
C1272      C1273   1.428       .  A
C1273      C1274   1.406       .  A
C1273      C1277   1.520       .  S
C1274      H1278   1.085       .  S
C1275      F1288   1.384       .  S
C1275      F1289   1.382       .  S
C1275      F1290   1.382       .  S
C1277      F1285   1.384       .  S
C1277      F1286   1.379       .  S
C1277      F1287   1.382       .  S
C1291      H1301   1.083       .  S
C1291      C1292   1.399       .  A
C1291      C1296   1.403       .  A
C1292      C1297   1.482       .  S
C1292      C1293   1.418       .  A
C1293      C1294   1.406       .  A
C1293      C1298   1.516       .  S
C1294      H1299   1.083       .  S
C1294      C1295   1.400       .  A
C1295      C1296   1.419       .  A
C1296      C1300   1.521       .  S
C1297      C1302   1.417       .  A
C1297      C1306   1.402       .  A
C1298      F1314   1.382       .  S
C1298      F1315   1.380       .  S
C1298      F1316   1.384       .  S
C1300      F1311   1.383       .  S
C1300      F1312   1.385       .  S
C1300      F1313   1.384       .  S
C1302      C1303   1.402       .  A
C1302      C1307   1.522       .  S
C1303      H1308   1.081       .  S
C1303      C1304   1.402       .  A
C1304      C1305   1.418       .  A
C1305      C1306   1.407       .  A
C1305      C1309   1.520       .  S
C1306      H1310   1.083       .  S
C1307      F1320   1.385       .  S
C1307      F1321   1.382       .  S
C1307      F1322   1.383       .  S
C1309      F1317   1.382       .  S
C1309      F1318   1.383       .  S
C1309      F1319   1.385       .  S
C1323      H1333   1.083       .  S
C1323      C1324   1.398       .  A
C1323      C1328   1.402       .  A
C1324      C1329   1.475       .  S
C1324      C1325   1.414       .  A
C1325      C1326   1.402       .  A
C1325      C1330   1.519       .  S
C1326      H1331   1.080       .  S
C1326      C1327   1.401       .  A
C1327      C1328   1.420       .  A
C1328      C1332   1.518       .  S
C1329      C1334   1.414       .  A
C1329      C1338   1.401       .  A
C1330      F1346   1.382       .  S
C1330      F1347   1.383       .  S
C1330      F1348   1.385       .  S
C1332      F1343   1.380       .  S
C1332      F1344   1.385       .  S
C1332      F1345   1.381       .  S
C1334      C1335   1.402       .  A
C1334      C1339   1.522       .  S
C1335      H1340   1.083       .  S
C1335      C1336   1.404       .  A
C1336      C1337   1.416       .  A
C1337      C1338   1.405       .  A
C1337      C1341   1.518       .  S
C1338      H1342   1.083       .  S
C1339      F1352   1.384       .  S
C1339      F1353   1.382       .  S
C1339      F1354   1.383       .  S
C1341      F1349   1.383       .  S
C1341      F1350   1.382       .  S
C1341      F1351   1.385       .  S
C1355      H1365   1.084   1_556  S
C1355      C1356   1.402       .  A
C1355      C1360   1.409       .  A
C1356      C1361   1.494       .  S
C1356      C1357   1.418   1_545  A
C1357      C1358   1.414       .  A
C1357      C1362   1.518       .  S
C1358      H1363   1.083       .  S
C1358      C1359   1.409   1_565  A
C1359      C1360   1.420       .  A
C1360      C1364   1.516   1_556  S
C1361      C1366   1.418       .  A
C1361      C1370   1.402   1_546  A
C1362      F1378   1.382       .  S
C1362      F1379   1.380       .  S
C1362      F1380   1.385       .  S
C1364      F1375   1.382       .  S
C1364      F1376   1.382       .  S
C1364      F1377   1.383       .  S
C1366      C1367   1.408       .  A
C1366      C1371   1.518       .  S
C1367      H1372   1.084       .  S
C1367      C1368   1.409   1_546  A
C1368      C1369   1.427       .  A
C1369      C1370   1.408       .  A
C1369      C1373   1.516       .  S
C1370      H1374   1.085       .  S
C1371      F1384   1.383       .  S
C1371      F1385   1.381       .  S
C1371      F1386   1.383       .  S
C1373      F1381   1.384       .  S
C1373      F1382   1.373       .  S
C1373      F1383   1.383       .  S
C1387      H1397   1.083       .  S
C1387      C1388   1.409       .  A
C1387      C1392   1.414       .  A
C1388      C1393   1.499       .  S
C1388      C1389   1.418   1_565  A
C1389      C1390   1.411       .  A
C1389      C1394   1.520       .  S
C1390      H1395   1.083       .  S
C1390      C1391   1.404   1_545  A
C1391      C1392   1.414       .  A
C1392      C1396   1.516       .  S
C1393      C1398   1.418   1_554  A
C1393      C1402   1.405   1_565  A
C1394      F1410   1.381       .  S
C1394      F1411   1.381       .  S
C1394      F1412   1.384       .  S
C1396      F1407   1.384       .  S
C1396      F1408   1.383       .  S
C1396      F1409   1.383   1_554  S
C1398      C1399   1.408   1_556  A
C1398      C1403   1.518       .  S
C1399      H1404   1.082   1_554  S
C1399      C1400   1.404   1_565  A
C1400      C1401   1.423       .  A
C1401      C1402   1.411       .  A
C1401      C1405   1.519       .  S
C1402      H1406   1.084       .  S
C1403      F1416   1.385       .  S
C1403      F1417   1.381       .  S
C1403      F1418   1.382   1_565  S
C1405      F1413   1.384   1_545  S
C1405      F1414   1.380       .  S
C1405      F1415   1.382       .  S
C1419      H1429   1.083       .  S
C1419      C1420   1.407       .  A
C1419      C1424   1.413       .  A
C1420      C1425   1.492       .  S
C1420      C1421   1.416       .  A
C1421      C1422   1.406       .  A
C1421      C1426   1.519       .  S
C1422      H1427   1.083       .  S
C1422      C1423   1.404       .  A
C1423      C1424   1.414       .  A
C1424      C1428   1.515   1_565  S
C1425      C1430   1.417       .  A
C1425      C1434   1.404       .  A
C1426      F1442   1.382       .  S
C1426      F1443   1.381       .  S
C1426      F1444   1.385       .  S
C1428      F1439   1.383       .  S
C1428      F1440   1.384       .  S
C1428      F1441   1.383       .  S
C1430      C1431   1.408       .  A
C1430      C1435   1.519       .  S
C1431      H1436   1.083       .  S
C1431      C1432   1.403       .  A
C1432      C1433   1.419       .  A
C1433      C1434   1.410       .  A
C1433      C1437   1.522       .  S
C1434      H1438   1.083       .  S
C1435      F1448   1.384       .  S
C1435      F1449   1.382       .  S
C1435      F1450   1.382       .  S
C1437      F1445   1.381       .  S
C1437      F1446   1.383       .  S
C1437      F1447   1.384       .  S
C1451      H1461   1.083       .  S
C1451      C1452   1.401       .  A
C1451      C1456   1.405       .  A
C1452      C1457   1.486       .  S
C1452      C1453   1.422       .  A
C1453      C1454   1.407       .  A
C1453      C1458   1.517       .  S
C1454      H1459   1.085       .  S
C1454      C1455   1.401       .  A
C1455      C1456   1.418       .  A
C1456      C1460   1.520       .  S
C1457      C1462   1.414       .  A
C1457      C1466   1.403       .  A
C1458      F1474   1.383       .  S
C1458      F1475   1.378       .  S
C1458      F1476   1.384       .  S
C1460      F1471   1.383       .  S
C1460      F1472   1.385       .  S
C1460      F1473   1.383       .  S
C1462      C1463   1.408       .  A
C1462      C1467   1.521       .  S
C1463      H1468   1.081       .  S
C1463      C1464   1.406       .  A
C1464      C1465   1.419       .  A
C1465      C1466   1.409       .  A
C1465      C1469   1.521       .  S
C1466      H1470   1.083       .  S
C1467      F1480   1.384       .  S
C1467      F1481   1.382       .  S
C1467      F1482   1.383       .  S
C1469      F1477   1.382       .  S
C1469      F1478   1.383       .  S
C1469      F1479   1.384       .  S
C1483      H1493   1.085       .  S
C1483      C1484   1.401       .  A
C1483      C1488   1.407       .  A
C1484      C1489   1.493       .  S
C1484      C1485   1.417       .  A
C1485      C1486   1.410       .  A
C1485      C1490   1.518       .  S
C1486      H1491   1.083       .  S
C1486      C1487   1.404       .  A
C1487      C1488   1.421       .  A
C1488      C1492   1.517       .  S
C1489      C1494   1.417       .  A
C1489      C1498   1.405       .  A
C1490      F1506   1.382       .  S
C1490      F1507   1.382       .  S
C1490      F1508   1.385       .  S
C1492      F1503   1.384       .  S
C1492      F1504   1.383       .  S
C1492      F1505   1.380       .  S
C1494      C1495   1.410       .  A
C1494      C1499   1.521       .  S
C1495      H1500   1.083       .  S
C1495      C1496   1.406       .  A
C1496      C1497   1.417       .  A
C1497      C1498   1.413       .  A
C1497      C1501   1.516       .  S
C1498      H1502   1.083       .  S
C1499      F1512   1.384       .  S
C1499      F1513   1.382       .  S
C1499      F1514   1.383       .  S
C1501      F1509   1.384       .  S
C1501      F1510   1.384       .  S
C1501      F1511   1.382       .  S
C1515      H1525   1.085       .  S
C1515      C1516   1.399       .  A
C1515      C1520   1.400       .  A
C1516      C1521   1.479       .  S
C1516      C1517   1.414       .  A
C1517      C1518   1.404       .  A
C1517      C1522   1.519       .  S
C1518      H1523   1.082       .  S
C1518      C1519   1.406       .  A
C1519      C1520   1.421       .  A
C1520      C1524   1.520       .  S
C1521      C1526   1.415       .  A
C1521      C1530   1.404       .  A
C1522      F1538   1.382       .  S
C1522      F1539   1.382       .  S
C1522      F1540   1.385       .  S
C1524      F1535   1.384       .  S
C1524      F1536   1.383       .  S
C1524      F1537   1.378       .  S
C1526      C1527   1.400       .  A
C1526      C1531   1.524       .  S
C1527      H1532   1.083       .  S
C1527      C1528   1.405       .  A
C1528      C1529   1.417       .  A
C1529      C1530   1.409       .  A
C1529      C1533   1.518       .  S
C1530      H1534   1.083       .  S
C1531      F1544   1.384       .  S
C1531      F1545   1.381       .  S
C1531      F1546   1.383       .  S
C1533      F1541   1.384       .  S
C1533      F1542   1.383       .  S
C1533      F1543   1.383       .  S
C1547      H1557   1.084       .  S
C1547      C1548   1.404       .  A
C1547      C1552   1.411       .  A
C1548      C1553   1.491       .  S
C1548      C1549   1.414       .  A
C1549      C1550   1.406       .  A
C1549      C1554   1.518       .  S
C1550      H1555   1.079       .  S
C1550      C1551   1.405       .  A
C1551      C1552   1.423       .  A
C1552      C1556   1.518       .  S
C1553      C1558   1.422       .  A
C1553      C1562   1.402       .  A
C1554      F1570   1.383       .  S
C1554      F1571   1.380       .  S
C1554      F1572   1.385       .  S
C1556      F1567   1.383       .  S
C1556      F1568   1.383       .  S
C1556      F1569   1.378       .  S
C1558      C1559   1.410       .  A
C1558      C1563   1.517       .  S
C1559      H1564   1.085       .  S
C1559      C1560   1.403       .  A
C1560      C1561   1.420       .  A
C1561      C1562   1.408       .  A
C1561      C1565   1.519       .  S
C1562      H1566   1.084       .  S
C1563      F1576   1.383       .  S
C1563      F1577   1.381       .  S
C1563      F1578   1.382       .  S
C1565      F1573   1.385       .  S
C1565      F1574   1.381       .  S
C1565      F1575   1.384       .  S
C1579      H1589   1.083       .  S
C1579      C1580   1.401       .  A
C1579      C1584   1.408       .  A
C1580      C1585   1.485       .  S
C1580      C1581   1.415       .  A
C1581      C1582   1.408       .  A
C1581      C1586   1.521       .  S
C1582      H1587   1.083       .  S
C1582      C1583   1.406       .  A
C1583      C1584   1.420       .  A
C1584      C1588   1.519       .  S
C1585      C1590   1.412       .  A
C1585      C1594   1.398       .  A
C1586      F1602   1.382       .  S
C1586      F1603   1.383       .  S
C1586      F1604   1.384       .  S
C1588      F1599   1.382       .  S
C1588      F1600   1.385       .  S
C1588      F1601   1.384       .  S
C1590      C1591   1.407       .  A
C1590      C1595   1.518       .  S
C1591      H1596   1.082       .  S
C1591      C1592   1.409       .  A
C1592      C1593   1.428       .  A
C1593      C1594   1.404       .  A
C1593      C1597   1.518       .  S
C1594      H1598   1.085       .  S
C1595      F1608   1.385       .  S
C1595      F1609   1.382       .  S
C1595      F1610   1.382       .  S
C1597      F1605   1.383       .  S
C1597      F1606   1.376       .  S
C1597      F1607   1.383       .  S
C1611      H1621   1.083       .  S
C1611      C1612   1.400   1_545  A
C1611      C1616   1.406       .  A
C1612      C1617   1.482       .  S
C1612      C1613   1.416       .  A
C1613      C1614   1.406       .  A
C1613      C1618   1.520       .  S
C1614      H1619   1.081       .  S
C1614      C1615   1.403       .  A
C1615      C1616   1.420   1_565  A
C1616      C1620   1.521       .  S
C1617      C1622   1.415       .  A
C1617      C1626   1.404       .  A
C1618      F1634   1.382       .  S
C1618      F1635   1.383       .  S
C1618      F1636   1.384       .  S
C1620      F1631   1.385       .  S
C1620      F1632   1.381       .  S
C1620      F1633   1.382       .  S
C1622      C1623   1.401       .  A
C1622      C1627   1.520       .  S
C1623      H1628   1.083       .  S
C1623      C1624   1.403       .  A
C1624      C1625   1.417       .  A
C1625      C1626   1.409       .  A
C1625      C1629   1.519       .  S
C1626      H1630   1.083       .  S
C1627      F1640   1.384       .  S
C1627      F1641   1.382   1_565  S
C1627      F1642   1.381       .  S
C1629      F1637   1.384       .  S
C1629      F1638   1.384       .  S
C1629      F1639   1.382       .  S
C1643      H1653   1.084       .  S
C1643      C1644   1.397       .  A
C1643      C1648   1.401       .  A
C1644      C1649   1.475       .  S
C1644      C1645   1.414       .  A
C1645      C1646   1.407       .  A
C1645      C1650   1.519       .  S
C1646      H1651   1.083       .  S
C1646      C1647   1.403       .  A
C1647      C1648   1.421       .  A
C1648      C1652   1.522       .  S
C1649      C1654   1.412       .  A
C1649      C1658   1.401       .  A
C1650      F1666   1.382       .  S
C1650      F1667   1.382       .  S
C1650      F1668   1.384       .  S
C1652      F1663   1.381       .  S
C1652      F1664   1.385       .  S
C1652      F1665   1.383       .  S
C1654      C1655   1.399       .  A
C1654      C1659   1.521       .  S
C1655      H1660   1.082       .  S
C1655      C1656   1.404       .  A
C1656      C1657   1.422       .  A
C1657      C1658   1.404       .  A
C1657      C1661   1.520       .  S
C1658      H1662   1.085       .  S
C1659      F1672   1.385       .  S
C1659      F1673   1.382       .  S
C1659      F1674   1.382       .  S
C1661      F1669   1.384       .  S
C1661      F1670   1.379       .  S
C1661      F1671   1.383       .  S
C1675      H1685   1.084       .  S
C1675      C1676   1.399       .  A
C1675      C1680   1.401       .  A
C1676      C1681   1.479       .  S
C1676      C1677   1.417       .  A
C1677      C1678   1.410       .  A
C1677      C1682   1.517       .  S
C1678      H1683   1.083       .  S
C1678      C1679   1.401       .  A
C1679      C1680   1.415       .  A
C1680      C1684   1.520       .  S
C1681      C1686   1.416       .  A
C1681      C1690   1.399       .  A
C1682      F1698   1.383       .  S
C1682      F1699   1.381       .  S
C1682      F1700   1.385       .  S
C1684      F1695   1.385       .  S
C1684      F1696   1.384       .  S
C1684      F1697   1.382       .  S
C1686      C1687   1.407       .  A
C1686      C1691   1.520       .  S
C1687      H1692   1.083       .  S
C1687      C1688   1.405       .  A
C1688      C1689   1.419       .  A
C1689      C1690   1.403       .  A
C1689      C1693   1.516       .  S
C1690      H1694   1.085       .  S
C1691      F1704   1.384       .  S
C1691      F1705   1.382       .  S
C1691      F1706   1.382       .  S
C1693      F1701   1.383       .  S
C1693      F1702   1.379       .  S
C1693      F1703   1.384       .  S
C1707      H1717   1.083       .  S
C1707      C1708   1.408       .  A
C1707      C1712   1.413       .  A
C1708      C1713   1.487       .  S
C1708      C1709   1.419       .  A
C1709      C1710   1.401       .  A
C1709      C1714   1.519       .  S
C1710      H1715   1.086       .  S
C1710      C1711   1.401       .  A
C1711      C1712   1.414       .  A
C1712      C1716   1.515       .  S
C1713      C1718   1.412       .  A
C1713      C1722   1.402       .  A
C1714      F1730   1.380       .  S
C1714      F1731   1.383       .  S
C1714      F1732   1.381       .  S
C1716      F1727   1.383       .  S
C1716      F1728   1.384       .  S
C1716      F1729   1.382       .  S
C1718      C1719   1.405       .  A
C1718      C1723   1.518       .  S
C1719      H1724   1.079       .  S
C1719      C1720   1.406       .  A
C1720      C1721   1.425       .  A
C1721      C1722   1.410       .  A
C1721      C1725   1.516       .  S
C1722      H1726   1.085       .  S
C1723      F1736   1.384       .  S
C1723      F1737   1.383       .  S
C1723      F1738   1.380       .  S
C1725      F1733   1.383       .  S
C1725      F1734   1.378       .  S
C1725      F1735   1.383       .  S
C1739      H1749   1.085       .  S
C1739      C1740   1.397       .  A
C1739      C1744   1.408       .  A
C1740      C1745   1.489       .  S
C1740      C1741   1.414       .  A
C1741      C1742   1.408       .  A
C1741      C1746   1.519       .  S
C1742      H1747   1.081       .  S
C1742      C1743   1.408       .  A
C1743      C1744   1.427       .  A
C1744      C1748   1.510       .  S
C1745      C1750   1.419       .  A
C1745      C1754   1.399       .  A
C1746      F1762   1.382       .  S
C1746      F1763   1.383       .  S
C1746      F1764   1.384       .  S
C1748      F1759   1.383       .  S
C1748      F1760   1.381       .  S
C1748      F1761   1.372       .  S
C1750      C1751   1.413       .  A
C1750      C1755   1.517       .  S
C1751      H1756   1.083   1_655  S
C1751      C1752   1.404       .  A
C1752      C1753   1.420       .  A
C1753      C1754   1.404       .  A
C1753      C1757   1.520       .  S
C1754      H1758   1.084       .  S
C1755      F1768   1.385       .  S
C1755      F1769   1.382       .  S
C1755      F1770   1.380       .  S
C1757      F1765   1.384       .  S
C1757      F1766   1.382       .  S
C1757      F1767   1.385       .  S
C1771      H1781   1.085   1_455  S
C1771      C1772   1.400       .  A
C1771      C1776   1.405   1_455  A
C1772      C1777   1.486       .  S
C1772      C1773   1.416       .  A
C1773      C1774   1.409       .  A
C1773      C1778   1.519       .  S
C1774      H1779   1.083       .  S
C1774      C1775   1.405       .  A
C1775      C1776   1.420   1_455  A
C1776      C1780   1.518       .  S
C1777      C1782   1.416       .  A
C1777      C1786   1.405       .  A
C1778      F1794   1.382       .  S
C1778      F1795   1.382       .  S
C1778      F1796   1.384       .  S
C1780      F1791   1.383       .  S
C1780      F1792   1.384       .  S
C1780      F1793   1.378       .  S
C1782      C1783   1.407       .  A
C1782      C1787   1.521       .  S
C1783      H1788   1.083       .  S
C1783      C1784   1.404       .  A
C1784      C1785   1.415       .  A
C1785      C1786   1.410       .  A
C1785      C1789   1.517       .  S
C1786      H1790   1.083       .  S
C1787      F1800   1.384       .  S
C1787      F1801   1.382       .  S
C1787      F1802   1.383       .  S
C1789      F1797   1.384       .  S
C1789      F1798   1.383       .  S
C1789      F1799   1.383       .  S
C1803      H1813   1.083       .  S
C1803      C1804   1.400       .  A
C1803      C1808   1.406       .  A
C1804      C1809   1.492       .  S
C1804      C1805   1.419       .  A
C1805      C1806   1.412       .  A
C1805      C1810   1.517       .  S
C1806      H1811   1.083       .  S
C1806      C1807   1.403       .  A
C1807      C1808   1.421       .  A
C1808      C1812   1.522       .  S
C1809      C1814   1.419       .  A
C1809      C1818   1.401       .  A
C1810      F1826   1.382       .  S
C1810      F1827   1.381       .  S
C1810      F1828   1.384       .  S
C1812      F1823   1.382       .  S
C1812      F1824   1.384       .  S
C1812      F1825   1.384       .  S
C1814      C1815   1.411   1_565  A
C1814      C1819   1.520   1_565  S
C1815      H1820   1.081       .  S
C1815      C1816   1.404   1_545  A
C1816      C1817   1.420       .  A
C1817      C1818   1.408       .  A
C1817      C1821   1.521       .  S
C1818      H1822   1.083       .  S
C1819      F1832   1.384       .  S
C1819      F1833   1.382       .  S
C1819      F1834   1.382   1_545  S
C1821      F1829   1.380       .  S
C1821      F1830   1.382       .  S
C1821      F1831   1.384       .  S
C1835      H1845   1.084       .  S
C1835      C1836   1.401       .  A
C1835      C1840   1.407       .  A
C1836      C1841   1.484       .  S
C1836      C1837   1.413       .  A
C1837      C1838   1.404       .  A
C1837      C1842   1.520       .  S
C1838      H1843   1.081       .  S
C1838      C1839   1.407       .  A
C1839      C1840   1.423       .  A
C1840      C1844   1.519       .  S
C1841      C1846   1.415       .  A
C1841      C1850   1.400   1_655  A
C1842      F1858   1.382       .  S
C1842      F1859   1.382       .  S
C1842      F1860   1.385       .  S
C1844      F1855   1.385       .  S
C1844      F1856   1.382       .  S
C1844      F1857   1.379       .  S
C1846      C1847   1.408       .  A
C1846      C1851   1.520       .  S
C1847      H1852   1.083       .  S
C1847      C1848   1.407   1_655  A
C1848      C1849   1.421       .  A
C1849      C1850   1.406       .  A
C1849      C1853   1.520       .  S
C1850      H1854   1.083       .  S
C1851      F1864   1.385       .  S
C1851      F1865   1.382       .  S
C1851      F1866   1.382       .  S
C1853      F1861   1.385       .  S
C1853      F1862   1.384       .  S
C1853      F1863   1.383       .  S
C1867      H1877   1.083       .  S
C1867      C1868   1.402       .  A
C1867      C1872   1.408       .  A
C1868      C1873   1.484       .  S
C1868      C1869   1.415       .  A
C1869      C1870   1.404       .  A
C1869      C1874   1.521       .  S
C1870      H1875   1.082       .  S
C1870      C1871   1.405       .  A
C1871      C1872   1.421       .  A
C1872      C1876   1.522       .  S
C1873      C1878   1.415       .  A
C1873      C1882   1.404       .  A
C1874      F1890   1.382       .  S
C1874      F1891   1.383       .  S
C1874      F1892   1.384       .  S
C1876      F1887   1.385       .  S
C1876      F1888   1.381       .  S
C1876      F1889   1.383       .  S
C1878      C1879   1.404       .  A
C1878      C1883   1.521       .  S
C1879      H1884   1.083       .  S
C1879      C1880   1.405       .  A
C1880      C1881   1.416   1_655  A
C1881      C1882   1.409   1_455  A
C1881      C1885   1.516       .  S
C1882      H1886   1.083   1_655  S
C1883      F1896   1.384       .  S
C1883      F1897   1.381       .  S
C1883      F1898   1.381       .  S
C1885      F1893   1.385       .  S
C1885      F1894   1.383       .  S
C1885      F1895   1.383       .  S
C1899      H1909   1.083       .  S
C1899      C1900   1.405       .  A
C1899      C1904   1.411       .  A
C1900      C1905   1.487       .  S
C1900      C1901   1.417       .  A
C1901      C1902   1.405       .  A
C1901      C1906   1.521       .  S
C1902      H1907   1.083       .  S
C1902      C1903   1.403       .  A
C1903      C1904   1.416       .  A
C1904      C1908   1.517       .  S
C1905      C1910   1.417       .  A
C1905      C1914   1.403       .  A
C1906      F1922   1.381       .  S
C1906      F1923   1.381       .  S
C1906      F1924   1.384       .  S
C1908      F1919   1.383       .  S
C1908      F1920   1.385   1_545  S
C1908      F1921   1.383   1_545  S
C1910      C1911   1.406       .  A
C1910      C1915   1.519       .  S
C1911      H1916   1.082       .  S
C1911      C1912   1.403       .  A
C1912      C1913   1.418       .  A
C1913      C1914   1.404       .  A
C1913      C1917   1.520       .  S
C1914      H1918   1.085       .  S
C1915      F1928   1.385       .  S
C1915      F1929   1.382       .  S
C1915      F1930   1.382       .  S
C1917      F1925   1.382       .  S
C1917      F1926   1.382       .  S
C1917      F1927   1.384       .  S
C1931      H1941   1.084       .  S
C1931      C1932   1.399   1_565  A
C1931      C1936   1.403       .  A
C1932      C1937   1.469       .  S
C1932      C1933   1.410       .  A
C1933      C1934   1.405       .  A
C1933      C1938   1.514       .  S
C1934      H1939   1.082       .  S
C1934      C1935   1.407   1_545  A
C1935      C1936   1.424       .  A
C1936      C1940   1.524       .  S
C1937      C1942   1.835       .  A
C1937      C1946   1.841       .  A
C1938      F1954   1.382       .  S
C1938      F1955   1.382       .  S
C1938      F1956   1.384       .  S
C1940      F1951   1.385       .  S
C1940      F1952   1.384       .  S
C1940      F1953   1.384       .  S
C1942      C1943   1.835       .  A
C1942      C1947   1.499       .  S
C1943      H1948   1.088       .  S
C1943      C1944   1.843       .  A
C1944      C1945   1.858       .  A
C1945      C1946   1.839       .  A
C1945      C1949   1.499       .  S
C1946      H1950   1.077       .  S
C1947      F1960   1.381       .  S
C1947      F1961   1.382       .  S
C1947      F1962   1.380       .  S
C1949      F1957   1.382       .  S
C1949      F1958   1.381       .  S
C1949      F1959   1.382       .  S
C1963      H1973   1.083       .  S
C1963      C1964   1.398       .  A
C1963      C1968   1.405       .  A
C1964      C1969   1.482       .  S
C1964      C1965   1.415       .  A
C1965      C1966   1.406       .  A
C1965      C1970   1.519       .  S
C1966      H1971   1.083       .  S
C1966      C1967   1.404       .  A
C1967      C1968   1.427       .  A
C1968      C1972   1.525       .  S
C1969      C1974   1.414       .  A
C1969      C1978   1.402       .  A
C1970      F1986   1.382       .  S
C1970      F1987   1.383       .  S
C1970      F1988   1.384       .  S
C1972      F1983   1.385       .  S
C1972      F1984   1.384       .  S
C1972      F1985   1.383       .  S
C1974      C1975   1.402       .  A
C1974      C1979   1.519       .  S
C1975      H1980   1.081       .  S
C1975      C1976   1.403       .  A
C1976      C1977   1.421       .  A
C1977      C1978   1.407       .  A
C1977      C1981   1.522       .  S
C1978      H1982   1.083       .  S
C1979      F1992   1.384       .  S
C1979      F1993   1.381       .  S
C1979      F1994   1.381       .  S
C1981      F1989   1.385       .  S
C1981      F1990   1.381       .  S
C1981      F1991   1.379       .  S
C1995      H2005   1.081       .  S
C1995      C1996   1.407       .  A
C1995      C2000   1.412       .  A
C1996      C2001   1.489       .  S
C1996      C1997   1.417       .  A
C1997      C1998   1.405       .  A
C1997      C2002   1.521       .  S
C1998      H2003   1.084       .  S
C1998      C1999   1.402       .  A
C1999      C2000   1.412       .  A
C2000      C2004   1.515       .  S
C2001      C2006   1.415       .  A
C2001      C2010   1.403       .  A
C2002      F2018   1.381       .  S
C2002      F2019   1.382       .  S
C2002      F2020   1.385   1_545  S
C2004      F2015   1.383       .  S
C2004      F2016   1.385       .  S
C2004      F2017   1.383       .  S
C2006      C2007   1.408       .  A
C2006      C2011   1.519       .  S
C2007      H2012   1.083       .  S
C2007      C2008   1.405       .  A
C2008      C2009   1.420       .  A
C2009      C2010   1.407       .  A
C2009      C2013   1.516       .  S
C2010      H2014   1.085       .  S
C2011      F2024   1.384       .  S
C2011      F2025   1.382       .  S
C2011      F2026   1.381       .  S
C2013      F2021   1.383       .  S
C2013      F2022   1.379       .  S
C2013      F2023   1.384       .  S
C2027      H2037   1.084       .  S
C2027      C2028   1.399       .  A
C2027      C2032   1.404       .  A
C2028      C2033   1.485       .  S
C2028      C2029   1.416       .  A
C2029      C2030   1.409       .  A
C2029      C2034   1.520       .  S
C2030      H2035   1.082       .  S
C2030      C2031   1.407       .  A
C2031      C2032   1.421       .  A
C2032      C2036   1.520       .  S
C2033      C2038   1.415       .  A
C2033      C2042   1.404       .  A
C2034      F2050   1.382       .  S
C2034      F2051   1.382       .  S
C2034      F2052   1.385       .  S
C2036      F2047   1.385       .  S
C2036      F2048   1.382       .  S
C2036      F2049   1.383       .  S
C2038      C2039   1.405   1_545  A
C2038      C2043   1.520       .  S
C2039      H2044   1.083       .  S
C2039      C2040   1.404       .  A
C2040      C2041   1.416       .  A
C2041      C2042   1.409   1_565  A
C2041      C2045   1.517       .  S
C2042      H2046   1.083       .  S
C2043      F2056   1.385       .  S
C2043      F2057   1.381       .  S
C2043      F2058   1.381       .  S
C2045      F2053   1.385       .  S
C2045      F2054   1.383       .  S
C2045      F2055   1.382       .  S
C2059      H2069   1.084       .  S
C2059      C2060   1.404       .  A
C2059      C2064   1.415       .  A
C2060      C2065   1.495       .  S
C2060      C2061   1.412       .  A
C2061      C2062   1.407       .  A
C2061      C2066   1.520       .  S
C2062      H2067   1.076       .  S
C2062      C2063   1.407       .  A
C2063      C2064   1.426       .  A
C2064      C2068   1.517       .  S
C2065      C2070   1.424       .  A
C2065      C2074   1.404       .  A
C2066      F2082   1.383       .  S
C2066      F2083   1.381       .  S
C2066      F2084   1.384       .  S
C2068      F2079   1.383       .  S
C2068      F2080   1.383       .  S
C2068      F2081   1.378       .  S
C2070      C2071   1.413       .  A
C2070      C2075   1.519       .  S
C2071      H2076   1.084       .  S
C2071      C2072   1.402       .  A
C2072      C2073   1.417       .  A
C2073      C2074   1.409       .  A
C2073      C2077   1.519       .  S
C2074      H2078   1.083       .  S
C2075      F2088   1.384       .  S
C2075      F2089   1.382       .  S
C2075      F2090   1.381       .  S
C2077      F2085   1.383       .  S
C2077      F2086   1.384       .  S
C2077      F2087   1.384       .  S
C2091      H2101   1.085       .  S
C2091      C2092   1.400       .  A
C2091      C2096   1.411       .  A
C2092      C2097   1.496       .  S
C2092      C2093   1.415       .  A
C2093      C2094   1.411       .  A
C2093      C2098   1.520       .  S
C2094      H2099   1.082       .  S
C2094      C2095   1.409       .  A
C2095      C2096   1.424       .  A
C2096      C2100   1.512       .  S
C2097      C2102   1.418       .  A
C2097      C2106   1.406       .  A
C2098      F2114   1.384       .  S
C2098      F2115   1.382       .  S
C2098      F2116   1.383       .  S
C2100      F2111   1.383       .  S
C2100      F2112   1.382       .  S
C2100      F2113   1.375       .  S
C2102      C2103   1.410       .  A
C2102      C2107   1.519       .  S
C2103      H2108   1.083       .  S
C2103      C2104   1.404       .  A
C2104      C2105   1.413       .  A
C2105      C2106   1.411       .  A
C2105      C2109   1.516   1_655  S
C2106      H2110   1.080       .  S
C2107      F2120   1.382       .  S
C2107      F2121   1.385       .  S
C2107      F2122   1.382       .  S
C2109      F2117   1.385   1_455  S
C2109      F2118   1.383       .  S
C2109      F2119   1.380       .  S
C2123      H2133   1.084       .  S
C2123      C2124   1.399   1_655  A
C2123      C2128   1.403       .  A
C2124      C2129   1.477       .  S
C2124      C2125   1.415       .  A
C2125      C2126   1.403       .  A
C2125      C2130   1.521       .  S
C2126      H2131   1.082       .  S
C2126      C2127   1.403       .  A
C2127      C2128   1.420   1_455  A
C2128      C2132   1.519       .  S
C2129      C2134   1.415       .  A
C2129      C2138   1.400       .  A
C2130      F2146   1.382       .  S
C2130      F2147   1.382       .  S
C2130      F2148   1.385       .  S
C2132      F2143   1.382       .  S
C2132      F2144   1.384       .  S
C2132      F2145   1.379       .  S
C2134      C2135   1.408       .  A
C2134      C2139   1.518       .  S
C2135      H2140   1.083       .  S
C2135      C2136   1.401       .  A
C2136      C2137   1.416       .  A
C2137      C2138   1.402       .  A
C2137      C2141   1.519       .  S
C2138      H2142   1.084       .  S
C2139      F2152   1.384       .  S
C2139      F2153   1.383   1_455  S
C2139      F2154   1.382       .  S
C2141      F2149   1.384       .  S
C2141      F2150   1.381       .  S
C2141      F2151   1.384       .  S
C2155      H2165   1.084       .  S
C2155      C2156   1.403       .  A
C2155      C2160   1.407       .  A
C2156      C2161   1.485       .  S
C2156      C2157   1.417       .  A
C2157      C2158   1.403       .  A
C2157      C2162   1.520       .  S
C2158      H2163   1.083       .  S
C2158      C2159   1.401       .  A
C2159      C2160   1.418       .  A
C2160      C2164   1.518       .  S
C2161      C2166   1.414       .  A
C2161      C2170   1.403       .  A
C2162      F2178   1.381       .  S
C2162      F2179   1.382       .  S
C2162      F2180   1.385       .  S
C2164      F2175   1.383       .  S
C2164      F2176   1.383       .  S
C2164      F2177   1.381       .  S
C2166      C2167   1.407       .  A
C2166      C2171   1.520       .  S
C2167      H2172   1.083       .  S
C2167      C2168   1.405       .  A
C2168      C2169   1.416       .  A
C2169      C2170   1.409       .  A
C2169      C2173   1.516       .  S
C2170      H2174   1.083       .  S
C2171      F2184   1.385       .  S
C2171      F2185   1.382       .  S
C2171      F2186   1.382       .  S
C2173      F2181   1.385       .  S
C2173      F2182   1.383       .  S
C2173      F2183   1.381       .  S
C2187      H2197   1.081       .  S
C2187      C2188   1.393       .  A
C2187      C2192   1.412       .  A
C2188      C2193   1.484       .  S
C2188      C2189   1.409       .  A
C2189      C2190   1.405       .  A
C2189      C2194   1.520   1_655  S
C2190      H2195   1.081       .  S
C2190      C2191   1.413       .  A
C2191      C2192   1.450       .  A
C2192      C2196   1.598       .  S
C2193      C2198   1.413       .  A
C2193      C2202   1.399   1_655  A
C2194      F2210   1.382       .  S
C2194      F2211   1.382       .  S
C2194      F2212   1.385       .  S
C2196      F2207   1.409       .  S
C2196      F2208   2.437       .  S
C2196      F2209   1.414       .  S
C2198      C2199   1.406   1_655  A
C2198      C2203   1.522       .  S
C2199      H2204   1.082       .  S
C2199      C2200   1.412       .  A
C2200      C2201   1.426       .  A
C2201      C2202   1.410       .  A
C2201      C2205   1.518       .  S
C2202      H2206   1.083       .  S
C2203      F2216   1.385       .  S
C2203      F2217   1.382       .  S
C2203      F2218   1.382       .  S
C2205      F2213   1.385       .  S
C2205      F2214   1.383       .  S
C2205      F2215   1.383       .  S
C2219      H2229   1.085       .  S
C2219      C2220   1.401       .  A
C2219      C2224   1.406       .  A
C2220      C2225   1.489       .  S
C2220      C2221   1.417       .  A
C2221      C2222   1.408       .  A
C2221      C2226   1.519       .  S
C2222      H2227   1.083       .  S
C2222      C2223   1.403       .  A
C2223      C2224   1.422       .  A
C2224      C2228   1.520       .  S
C2225      C2230   1.417       .  A
C2225      C2234   1.405       .  A
C2226      F2242   1.382       .  S
C2226      F2243   1.383       .  S
C2226      F2244   1.384       .  S
C2228      F2239   1.384       .  S
C2228      F2240   1.383       .  S
C2228      F2241   1.381       .  S
C2230      C2231   1.407       .  A
C2230      C2235   1.520       .  S
C2231      H2236   1.083       .  S
C2231      C2232   1.403       .  A
C2232      C2233   1.414       .  A
C2233      C2234   1.409       .  A
C2233      C2237   1.517       .  S
C2234      H2238   1.083       .  S
C2235      F2248   1.384       .  S
C2235      F2249   1.382       .  S
C2235      F2250   1.381       .  S
C2237      F2245   1.384       .  S
C2237      F2246   1.384       .  S
C2237      F2247   1.383       .  S
