geometry optimzed in LAMMPS
_audit_creation_date              2020-11-30 
_audit_creation_method            'lammps2cif' 
_symmetry_space_group_name_H-M    'P1' 
_symmetry_Int_Tables_number       1 
_symmetry_cell_setting            triclinic 
loop_ 
_symmetry_equiv_pos_as_xyz 
  x,y,z 
_cell_length_a                    33.65382097 
_cell_length_b                    33.333945882977254 
_cell_length_c                    33.783154904263924 
_cell_angle_alpha                 90.07590735663742 
_cell_angle_beta                  89.92894404343188 
_cell_angle_gamma                 90.25170691982561 
loop_ 
_atom_site_label 
_atom_site_type_symbol 
_atom_site_fract_x 
_atom_site_fract_y 
_atom_site_fract_z 
_atom_site_charge 
C1          C  0.49204493  0.36197478  0.09044395     0.42800
N2          N  0.47083394  0.39813223  0.04215058     0.01600
C3          C  0.58446566  0.52242755  0.92215644    -0.06200
H4          H  0.59599137  0.55175271  0.07525599     0.07100
C5          C  0.44718128  0.58356920  0.07528042    -0.06600
Co6        Co  0.53824382  0.43386897  0.99599288     0.74200
N7          N  0.56691628  0.50677473  0.03937759    -0.25800
Co8        Co  0.53227575  0.53760759  0.99763345     0.74100
C9          C  0.48288363  0.59916453  0.09462002     0.42900
N10         N  0.40104519  0.49629270  0.04444509     0.01300
N11         N  0.49971870  0.56556297  0.04284626     0.01400
N12         N  0.58753893  0.45479100  0.92228115    -0.46600
H13         H  0.55728430  0.37554203  0.07467966     0.07100
N14         N  0.56928896  0.46730076  0.03856826     0.01700
N15         N  0.49718023  0.56728209  0.95574915     0.01400
C16         C  0.47737374  0.60539065  0.90835148     0.43000
N17         N  0.40372928  0.45686259  0.04420191    -0.25200
C18         C  0.51949428  0.37830025  0.92386123    -0.06100
N19         N  0.45889448  0.37473843  0.07166645    -0.46300
N20         N  0.50994653  0.59115657  0.92696350    -0.46500
C21         C  0.48363838  0.36150144  0.90561640     0.42800
N22         N  0.56509681  0.46827272  0.95164480     0.01600
N23         N  0.40138443  0.45764818  0.95731375    -0.25200
N24         N  0.50991926  0.40112103  0.04023262    -0.25700
N25         N  0.39937644  0.49718931  0.95759766     0.01300
H26         H  0.37487399  0.41257594  0.91958305     0.07200
H27         H  0.41171437  0.59190610  0.92263745     0.07200
N28         N  0.56305311  0.50779427  0.95246783    -0.25800
N29         N  0.46054683  0.56295079  0.04383859    -0.25400
N30         N  0.46724149  0.39826152  0.95527224     0.01600
C31         C  0.60900065  0.48464153  0.08588395     0.43000
C32         C  0.38219614  0.44213179  0.07440479    -0.06600
N33         N  0.45805576  0.56482426  0.95720808    -0.25400
H34         H  0.41634756  0.58704563  0.08360478     0.07200
N35         N  0.59404404  0.45300819  0.06560023    -0.46600
H36         H  0.37936415  0.41067788  0.08112348     0.07200
C37         C  0.36291252  0.47973428  0.90793691     0.42900
C38         C  0.52584944  0.37951173  0.06951959    -0.06100
Co39       Co  0.43520098  0.42698143  0.99983602     0.73800
N40         N  0.37798376  0.50966009  0.07337650    -0.46300
C41         C  0.60091533  0.48715918  0.90216065     0.43100
N42         N  0.45251035  0.37455532  0.92731786    -0.46300
Co43       Co  0.42910663  0.53089803  0.00077243     0.73900
C44         C  0.44291180  0.58786305  0.92839563    -0.06600
C45         C  0.59081710  0.52048989  0.06835339    -0.06200
N46         N  0.50633816  0.40093409  0.95392557    -0.25700
N47         N  0.51421407  0.58734641  0.07239399    -0.46500
H48         H  0.58938093  0.55388987  0.91598604     0.07200
C49         C  0.37911705  0.44383496  0.92712875    -0.06600
Cl50       Cl  0.48370879  0.48235566  0.99856585    -0.49600
C51         C  0.36451205  0.47732625  0.09368935     0.42900
H52         H  0.55036933  0.37333876  0.91677298     0.07100
N53         N  0.37651005  0.51141047  0.92902338    -0.46300
C54         C  0.23763927  0.51285623  0.20126243     0.03400
C55         C  0.21501903  0.53752161  0.17659783    -0.12700
C56         C  0.17659943  0.54866680  0.18712447     0.00900
C57         C  0.16060640  0.53605094  0.22322575    -0.11200
C58         C  0.18262786  0.51192788  0.24909885     0.03400
C59         C  0.22130680  0.49960017  0.23774958    -0.10700
H60         H  0.22653701  0.54616552  0.14781712     0.09000
H61         H  0.13030280  0.54403753  0.23070431     0.06500
H62         H  0.23817158  0.47980946  0.25669161     0.06400
C63         C  0.74411076  0.49832582  0.19046041     0.03400
C64         C  0.77230890  0.51758982  0.16653625    -0.12700
C65         C  0.81014680  0.52655513  0.18089526     0.00900
C66         C  0.82005055  0.51687957  0.21976875    -0.11200
C67         C  0.79265868  0.49745459  0.24455000     0.03400
C68         C  0.75429144  0.48798520  0.22987273    -0.10700
H69         H  0.76455524  0.52607039  0.13654607     0.09000
H70         H  0.84934198  0.52458828  0.23087496     0.06500
H71         H  0.73272631  0.47328338  0.24879697     0.06400
C72         C  0.17478857  0.49700523  0.75802599     0.03400
C73         C  0.21351498  0.48656598  0.77006138    -0.12700
C74         C  0.22674354  0.49713575  0.80827519     0.00900
C75         C  0.20145092  0.51838570  0.83366805    -0.11200
C76         C  0.16278045  0.52784518  0.82225413     0.03400
C77         C  0.14975112  0.51767364  0.78426544    -0.10700
H78         H  0.23305316  0.47072636  0.74997127     0.09000
H79         H  0.21180769  0.52708708  0.86284025     0.06500
H80         H  0.11984368  0.52541098  0.77522469     0.06400
C81         C  0.79758514  0.51534408  0.76589442     0.03400
C82         C  0.75790169  0.50332420  0.77324475    -0.12700
C83         C  0.73962111  0.51328076  0.80963819     0.00900
C84         C  0.76135227  0.53412312  0.83848216    -0.11200
C85         C  0.80095742  0.54443537  0.83186937     0.03400
C86         C  0.81873577  0.53562763  0.79553877    -0.10700
H87         H  0.74159141  0.48643226  0.75115302     0.09000
H88         H  0.74768406  0.54128028  0.86670148     0.06500
H89         H  0.84951477  0.54401138  0.79054919     0.06400
N90         N  0.98534713  0.61876135  0.94479380    -0.36300
N91         N  0.92853643  0.62025680  0.00974425    -0.56900
N92         N  0.99255328  0.61961128  0.06845456    -0.36300
N93         N  0.04930408  0.61475346  0.00341172    -0.56900
C94         C  0.95123707  0.60944149  0.92556178     0.27300
C95         C  0.01563672  0.60470756  0.92235191     0.27300
C96         C  0.96120387  0.60963364  0.09163708     0.27300
C97         C  0.02579523  0.60946139  0.08853608     0.27300
C98         C  0.90285005  0.62440338  0.97939103     0.35900
C99         C  0.90664744  0.62216508  0.04316542     0.35900
C100        C  0.07124773  0.61562443  0.96993959     0.35900
C101        C  0.07512232  0.61796839  0.03385427     0.35900
C102        C  0.96013572  0.59097772  0.88980808    -0.21600
C103        C  0.00063734  0.58778815  0.88790469    -0.21600
C104        C  0.97474629  0.59513096  0.12761452    -0.21600
C105        C  0.01543154  0.59527291  0.12578031    -0.21600
C106        C  0.86455279  0.62957106  0.99362698    -0.22600
C107        C  0.86694230  0.62793699  0.03405373    -0.22600
C108        C  0.11119291  0.61972686  0.97911195    -0.22600
C109        C  0.11364656  0.62134601  0.01962939    -0.22600
C110        C  0.91209383  0.61570758  0.93961229    -0.18000
C111        C  0.05653412  0.60615312  0.93194281    -0.18000
C112        C  0.06521635  0.61068376  0.07382797    -0.18000
C113        C  0.92060964  0.61168461  0.08104057    -0.18000
H114        H  0.93956077  0.57997618  0.86767015     0.14900
H115        H  0.01711059  0.57401757  0.86397977     0.14900
H116        H  0.95714128  0.58469410  0.15241285     0.14900
H117        H  0.03506551  0.58468290  0.14882985     0.14900
H118        H  0.83743486  0.63177628  0.97658228     0.13200
H119        H  0.84208322  0.62888811  0.05439519     0.13200
H120        H  0.13606555  0.61966334  0.95876342     0.13200
H121        H  0.14080019  0.62260000  0.03673528     0.13200
H122        H  0.98781524  0.63393312  0.97155201     0.26500
H123        H  0.99135031  0.63197460  0.04034773     0.26500
C124        C  0.06870503  0.35976163  0.49638371     0.42800
N125        N  0.02492783  0.40306292  0.51580408     0.01600
C126        C  0.90746708  0.52831966  0.40101741    -0.06200
H127        H  0.06238648  0.55629673  0.39153524     0.07100
C128        C  0.05937790  0.59544805  0.53497499    -0.06600
Co129      Co  0.97999984  0.43920976  0.44807400     0.74200
N130        N  0.02489289  0.51151134  0.41888240    -0.25800
Co131      Co  0.98303386  0.54344547  0.45241201     0.74100
C132        C  0.07568035  0.61355808  0.49907000     0.42900
N133        N  0.03192883  0.50437822  0.58201895     0.01300
N134        N  0.02816172  0.57323595  0.48343281     0.01400
N135        N  0.90566096  0.46074106  0.39932245    -0.46600
H136        H  0.05467290  0.37429403  0.43069582     0.07100
N137        N  0.02390455  0.47192182  0.41668843     0.01700
N138        N  0.94113545  0.57327065  0.48746458     0.01400
C139        C  0.89146405  0.60851833  0.50737388     0.43000
N140        N  0.03027826  0.46483534  0.58011296    -0.25200
C141        C  0.90562708  0.38544007  0.46925957    -0.06100
N142        N  0.05134243  0.37662099  0.52855972    -0.46300
N143        N  0.91089450  0.59519195  0.47486265    -0.46500
C144        C  0.88777708  0.36969125  0.50589651     0.42800
N145        N  0.93600155  0.47395380  0.42080798     0.01600
N146        N  0.94368382  0.46753519  0.58539874    -0.25200
N147        N  0.02337370  0.40482636  0.47683818    -0.25700
N148        N  0.94499534  0.50704883  0.58730335     0.01300
H149        H  0.90808461  0.42326292  0.61540368     0.07200
H150        H  0.90882426  0.59894745  0.57284182     0.07200
N151        N  0.93767135  0.51342122  0.42224665    -0.25800
N152        N  0.03013045  0.57108689  0.52239859    -0.25400
N153        N  0.93826961  0.40704203  0.52002368     0.01600
C154        C  0.07281681  0.48925903  0.37864077     0.43000
C155        C  0.06032453  0.44965164  0.60122577    -0.06600
N156        N  0.94335964  0.57189383  0.52645506    -0.25400
H157        H  0.06644734  0.60185679  0.56555666     0.07200
N158        N  0.05188319  0.45746876  0.39279730    -0.46600
H159        H  0.06580571  0.41806500  0.60586918     0.07200
C160        C  0.89950110  0.49047552  0.62930904     0.42900
C161        C  0.05021704  0.37917193  0.46188426    -0.06100
Co162      Co  0.98428746  0.43514368  0.55074031     0.73800
N163        N  0.06178020  0.51736468  0.60426049    -0.46300
C164        C  0.88546446  0.49326347  0.38627437     0.43100
N165        N  0.91019774  0.38418088  0.53581023    -0.46300
Co166      Co  0.98777722  0.53918233  0.55512710     0.73900
C167        C  0.91374607  0.59385755  0.54165480    -0.06600
C168        C  0.05484297  0.52508002  0.39615916    -0.06200
N169        N  0.93658801  0.40814207  0.48100739    -0.25700
N170        N  0.05413391  0.59913883  0.46841919    -0.46500
H171        H  0.90267102  0.55983386  0.39585999     0.07200
C172        C  0.91554126  0.45434611  0.61049978    -0.06600
Cl173      Cl  0.98390032  0.48921942  0.50158733    -0.49600
C174        C  0.08153903  0.48453689  0.61701418     0.42900
H175        H  0.89740091  0.37979220  0.43882233     0.07100
N176        N  0.91925426  0.52193691  0.61323088    -0.46300
C177        C  0.51374757  0.78677747  0.24444159     0.03400
C178        C  0.50039552  0.74827418  0.23282168    -0.12700
C179        C  0.50992165  0.73361815  0.19472312     0.00900
C180        C  0.53256041  0.75738974  0.16895067    -0.11200
C181        C  0.54528582  0.79553377  0.18029741     0.03400
C182        C  0.53576440  0.81016778  0.21779535    -0.10700
H183        H  0.48255963  0.73030889  0.25282555     0.09000
H184        H  0.53897989  0.74673802  0.13927447     0.06500
H185        H  0.54466862  0.84038392  0.22593881     0.06400
C186        C  0.52494959  0.23009114  0.19337476     0.03400
C187        C  0.54267890  0.20237733  0.16756097    -0.12700
C188        C  0.55212024  0.16378878  0.18051859     0.00900
C189        C  0.54579917  0.15338549  0.21995988    -0.11200
C190        C  0.52725052  0.18006746  0.24602225     0.03400
C191        C  0.51647325  0.21863582  0.23270651    -0.10700
H192        H  0.54735779  0.21025082  0.13676106     0.09000
H193        H  0.55312943  0.12337949  0.22986570     0.06500
H194        H  0.50073388  0.23889957  0.25222979     0.06400
C195        C  0.49372628  0.22400426  0.80591692     0.03400
C196        C  0.51801489  0.19876376  0.82827857    -0.12700
C197        C  0.53025942  0.16202064  0.81311831     0.00900
C198        C  0.51886048  0.15042019  0.77520502    -0.11200
C199        C  0.49544542  0.17563001  0.75188579     0.03400
C200        C  0.48250868  0.21268774  0.76725348    -0.10700
H201        H  0.52627744  0.20716486  0.85820610     0.09000
H202        H  0.52730069  0.12107309  0.76418522     0.06500
H203        H  0.46381367  0.23210280  0.74967692     0.06400
C204        C  0.50734985  0.78088381  0.74279065     0.03400
C205        C  0.53455089  0.80389321  0.76486006    -0.12700
C206        C  0.54769649  0.79100619  0.80195519     0.00900
C207        C  0.53455582  0.75436910  0.81680922    -0.11200
C208        C  0.50753367  0.73062649  0.79574164     0.03400
C209        C  0.49345169  0.74398325  0.75853763    -0.10700
H210        H  0.54332097  0.83337954  0.75439099     0.09000
H211        H  0.54320222  0.74555802  0.84648143     0.06500
H212        H  0.47098300  0.72683041  0.74295916     0.06400
N213        N  0.60616225  0.03766841  0.99233150    -0.36300
N214        N  0.61075154  0.97569955  0.05202202    -0.56900
N215        N  0.61547376  0.91278092  0.99057595    -0.36300
N216        N  0.60678134  0.97509271  0.93106559    -0.56900
C217        C  0.59774221  0.05965504  0.02497433     0.27300
C218        C  0.59434111  0.05932139  0.96072374     0.27300
C219        C  0.60753575  0.89014630  0.02287184     0.27300
C220        C  0.60709588  0.88989845  0.95842066     0.27300
C221        C  0.61202191  0.00795376  0.07626031     0.35900
C222        C  0.61513005  0.94311080  0.07520325     0.35900
C223        C  0.60552393  0.00789544  0.90773069     0.35900
C224        C  0.61184698  0.94326239  0.90682615     0.35900
C225        C  0.58208459  0.09636213  0.01382317    -0.21600
C226        C  0.58023939  0.09629522  0.97335242    -0.21600
C227        C  0.59648238  0.85178982  0.01106580    -0.21600
C228        C  0.59616644  0.85165116  0.97048561    -0.21600
C229        C  0.61763297  0.99584025  0.11505088    -0.22600
C230        C  0.61947696  0.95475292  0.11440834    -0.22600
C231        C  0.61012541  0.99692064  0.86840241    -0.22600
C232        C  0.61432089  0.95597926  0.86783994    -0.22600
C233        C  0.60312121  0.04759551  0.06469937    -0.18000
C234        C  0.59482336  0.04665134  0.92075658    -0.18000
C235        C  0.60688582  0.90286912  0.91850376    -0.18000
C236        C  0.60799538  0.90326837  0.06276004    -0.18000
H237        H  0.57241100  0.12058238  0.03285481     0.14900
H238        H  0.56876542  0.12045441  0.95536049     0.14900
H239        H  0.58813903  0.82676949  0.02974883     0.14900
H240        H  0.58745741  0.82655234  0.95203042     0.14900
H241        H  0.61856978  0.01454878  0.14125106     0.13200
H242        H  0.62190928  0.93552678  0.14007589     0.13200
H243        H  0.60897041  0.01621321  0.84269149     0.13200
H244        H  0.61668890  0.93744509  0.84161502     0.13200
H245        H  0.61920479  0.00974793  0.99153325     0.26500
H246        H  0.62516019  0.94221069  0.99061167     0.26500
C247        C  0.15986949  0.76361961  0.51534267     0.03400
C248        C  0.19795888  0.77360579  0.50085974    -0.12700
C249        C  0.21614449  0.80994973  0.51208088     0.00900
C250        C  0.19656664  0.83585087  0.53822069    -0.11200
C251        C  0.15937172  0.82566930  0.55363091     0.03400
C252        C  0.14114234  0.78957472  0.54231617    -0.10700
H253        H  0.21318033  0.75342480  0.48083273     0.09000
H254        H  0.21039723  0.86403414  0.54665891     0.06500
H255        H  0.11215344  0.78187596  0.55418353     0.06400
C256        C  0.74265718  0.17476318  0.53088835     0.03400
C257        C  0.75498319  0.21352452  0.51904084    -0.12700
C258        C  0.79391073  0.22683602  0.52772760     0.00900
C259        C  0.81993196  0.20131488  0.54787063    -0.11200
C260        C  0.80803880  0.16273722  0.55871336     0.03400
C261        C  0.76956698  0.14957670  0.55029606    -0.10700
H262        H  0.73448187  0.23314614  0.50385844     0.09000
H263        H  0.84981224  0.21141753  0.55479659     0.06500
H264        H  0.76053052  0.11953660  0.55883745     0.06400
C265        C  0.16606445  0.21913879  0.52643800     0.03400
C266        C  0.14456357  0.19245659  0.55055153    -0.12700
C267        C  0.16031708  0.15508279  0.56078794     0.00900
C268        C  0.19800475  0.14432871  0.54738953    -0.11200
C269        C  0.22013120  0.17011117  0.52303348     0.03400
C270        C  0.20399747  0.20769632  0.51224202    -0.10700
H271        H  0.11525703  0.20066790  0.56109581     0.09000
H272        H  0.20998995  0.11532254  0.55548346     0.06500
H273        H  0.22051791  0.22757354  0.49289490     0.06400
C274        C  0.74437350  0.79887572  0.52497028     0.03400
C275        C  0.77209828  0.82562535  0.54141243    -0.12700
C276        C  0.81128644  0.81371549  0.54772165     0.00900
C277        C  0.82313324  0.77512860  0.53712986    -0.11200
C278        C  0.79613568  0.74824416  0.51989650     0.03400
C279        C  0.75645711  0.76001604  0.51387039    -0.10700
H280        H  0.76294734  0.85556416  0.54997769     0.09000
H281        H  0.85342737  0.76577121  0.54279494     0.06500
H282        H  0.73528488  0.73922371  0.50098734     0.06400
N283        N  0.93118817  0.98762147  0.64319972    -0.36300
N284        N  0.98843987  0.92323412  0.65531960    -0.56900
N285        N  0.07878063  0.98979810  0.65595398    -0.36300
N286        N  0.98812178  0.05258894  0.65943557    -0.56900
C287        C  0.90738766  0.95476130  0.64030177     0.26700
C288        C  0.90705857  0.02011510  0.64279548     0.27300
C289        C  0.06380114  0.95653308  0.67339768     0.27300
C290        C  0.06388311  0.02112893  0.67647629     0.27300
C291        C  0.95897995  0.90097649  0.63974643     0.35900
C292        C  0.02207824  0.90175615  0.65099809     0.35900
C293        C  0.95810936  0.07497810  0.64550032     0.35900
C294        C  0.02122606  0.07554053  0.65688438     0.35900
C295        C  0.86796871  0.96658547  0.63897353    -0.21600
C296        C  0.86775207  0.00762694  0.64063893    -0.21600
C297        C  0.04262957  0.96668133  0.70712307    -0.21600
C298        C  0.04267352  0.00770515  0.70906428    -0.21600
C299        C  0.97355935  0.86421751  0.62706139    -0.22600
C300        C  0.01380613  0.86489841  0.63387483    -0.22600
C301        C  0.97187456  0.11295265  0.63538591    -0.22600
C302        C  0.01209805  0.11314885  0.64226295    -0.22600
C303        C  0.91987895  0.91470236  0.63400289    -0.18000
C304        C  0.91909999  0.06077498  0.63926087    -0.18000
C305        C  0.05976801  0.05964376  0.66051630    -0.18000
C306        C  0.05999738  0.91950459  0.65398579    -0.18000
H307        H  0.84200434  0.94762462  0.63555727     0.14900
H308        H  0.84158205  0.02628988  0.63877747     0.14900
H309        H  0.02551099  0.94669893  0.72583825     0.14900
H310        H  0.02552395  0.02574084  0.72950140     0.14900
H311        H  0.95733395  0.84039502  0.61235381     0.13200
H312        H  0.03486260  0.84213256  0.62498069     0.13200
H313        H  0.95505932  0.13730459  0.62259389     0.13200
H314        H  0.03255370  0.13734373  0.63549822     0.13200
H315        H  0.96202545  0.98803648  0.64182274     0.26500
H316        H  0.09241480  0.99121717  0.62818374     0.26500
C317        C  0.49048823  0.89395503  0.37581918     0.42800
N318        N  0.47091216  0.94289652  0.41273277     0.01600
C319        C  0.58348628  0.05692692  0.54335958    -0.06200
H320        H  0.58547343  0.90324392  0.57170761     0.07100
C321        C  0.43789065  0.90509941  0.59443597    -0.06600
Co322      Co  0.53871283  0.98495753  0.45275965     0.74200
N323        N  0.56078758  0.93963378  0.52555654    -0.25800
Co324      Co  0.52687235  0.98263111  0.55471318     0.74100
C325        C  0.47230208  0.88500876  0.61212695     0.42900
N326        N  0.39762746  0.94007740  0.50635304     0.01300
N327        N  0.49178460  0.93735349  0.57988409     0.01400
N328        N  0.59059332  0.05682252  0.47700737    -0.46600
H329        H  0.55603875  0.90555608  0.39256538     0.07100
N330        N  0.56513272  0.93996089  0.48679548     0.01700
N331        N  0.49146382  0.02572081  0.58262727     0.01400
C332        C  0.47025613  0.07497665  0.61800237     0.43000
N333        N  0.40134975  0.94174649  0.46750874    -0.25200
C334        C  0.52763910  0.05968067  0.39893402    -0.06100
N335        N  0.45823863  0.91465584  0.38804545    -0.46300
N336        N  0.50326645  0.05480453  0.60675868    -0.46500
C337        C  0.49430249  0.08003261  0.38002903     0.42800
N338        N  0.56600995  0.02805002  0.48881056     0.01600
N339        N  0.40226901  0.02989896  0.47071885    -0.25200
N340        N  0.50981426  0.94228486  0.41753695    -0.25700
N341        N  0.39739709  0.02808848  0.50944187     0.01300
H342        H  0.37900475  0.06941456  0.42605078     0.07200
H343        H  0.40560284  0.06304732  0.59824462     0.07200
N344        N  0.56140105  0.02731937  0.52757706    -0.25800
N345        N  0.45286772  0.93710163  0.57515491    -0.25400
N346        N  0.47230078  0.03104577  0.41550976     0.01600
C347        C  0.60164217  0.89070760  0.50629292     0.43000
C348        C  0.37946682  0.91200256  0.45155463    -0.06600
N349        N  0.45264935  0.02543949  0.57751785    -0.25400
H350        H  0.40679280  0.89708821  0.59598282     0.07200
N351        N  0.58952021  0.91155499  0.47418629    -0.46600
H352        H  0.37597089  0.90614282  0.42026864     0.07200
C353        C  0.36111110  0.07816364  0.49156491     0.42900
C354        C  0.52481401  0.91244115  0.39549366    -0.06100
Co355      Co  0.43614092  0.98655167  0.44084167     0.73800
N356        N  0.37404605  0.91059023  0.51819439    -0.46300
C357        C  0.60299175  0.07678782  0.50960118     0.43100
N358        N  0.46098433  0.06040520  0.39163240    -0.46300
Co359      Co  0.42448958  0.98259505  0.54266232     0.73900
C360        C  0.43674595  0.05578844  0.59797863    -0.06600
C361        C  0.58244084  0.90965184  0.54050645    -0.06200
N362        N  0.51121854  0.02987273  0.41999054    -0.25700
N363        N  0.50449275  0.90707555  0.60189582    -0.46500
H364        H  0.58664392  0.06262548  0.57471124     0.07200
C365        C  0.38092667  0.06082949  0.45679497    -0.06600
Cl366      Cl  0.48154564  0.98421700  0.49771295    -0.49600
C367        C  0.36203926  0.89082710  0.48541892     0.42900
H368        H  0.55916575  0.06506542  0.39569910     0.07100
N369        N  0.37287064  0.05604269  0.52295153    -0.46300
C370        C  0.69390684  0.82829611  0.48098890    -0.05500
C371        C  0.70343265  0.81339051  0.51844997     0.00400
C372        C  0.67642230  0.81830692  0.55008152    -0.08100
C373        C  0.64222657  0.84158789  0.54395280    -0.05500
C374        C  0.63442784  0.86040032  0.50742962     0.00400
C375        C  0.65950796  0.85137525  0.47453836    -0.08000
C376        C  0.65122963  0.86639791  0.43295541     0.62300
H377        H  0.71498804  0.82351223  0.45720809     0.13000
H378        H  0.62206070  0.84622048  0.56841691     0.13100
C379        C  0.68409854  0.79935425  0.59021976     0.62600
F380        F  0.67747708  0.85055968  0.40554056    -0.22600
F381        F  0.65495519  0.90770386  0.43169119    -0.19900
F382        F  0.61332545  0.85503848  0.42164633    -0.19600
F383        F  0.71766651  0.81600615  0.60724702    -0.19600
F384        F  0.68967750  0.75853251  0.58558723    -0.20000
F385        F  0.65259619  0.80494555  0.61602723    -0.22600
C386        C  0.84119400  0.83624982  0.61024126    -0.05500
C387        C  0.83908725  0.84014731  0.56897516     0.00400
C388        C  0.86362156  0.86810804  0.54906619    -0.08100
C389        C  0.89002145  0.89145459  0.57154964    -0.05500
C390        C  0.89187410  0.88782823  0.61287099     0.00400
C391        C  0.86717959  0.86009405  0.63278882    -0.08000
C392        C  0.86775522  0.85657512  0.67751899     0.62300
H393        H  0.82192504  0.81459586  0.62462663     0.13000
H394        H  0.90923329  0.91318386  0.55718846     0.13100
C395        C  0.86147137  0.87352009  0.50453137     0.62600
F396        F  0.90569201  0.84765702  0.69032111    -0.22600
F397        F  0.84238632  0.82668253  0.69081390    -0.19900
F398        F  0.85594509  0.89247828  0.69423296    -0.19600
F399        F  0.82400735  0.88669321  0.49415301    -0.19600
F400        F  0.86893554  0.83745754  0.48579876    -0.20000
F401        F  0.88901433  0.90133501  0.49105808    -0.22600
C402        C  0.25784393  0.12418449  0.47986570    -0.05500
C403        C  0.25898708  0.15487551  0.50826643     0.00400
C404        C  0.29507223  0.16298544  0.52826377    -0.08100
C405        C  0.32846392  0.13849500  0.52052313    -0.05500
C406        C  0.32685497  0.10655380  0.49320889     0.00400
C407        C  0.29099623  0.09966472  0.47200673    -0.08000
C408        C  0.28657655  0.06516572  0.44290355     0.62300
H409        H  0.22973274  0.11816154  0.46540048     0.13000
H410        H  0.35585045  0.14336344  0.53667558     0.13100
C411        C  0.29762866  0.19675570  0.55834450     0.62600
F412        F  0.24759889  0.06010190  0.43078495    -0.22600
F413        F  0.29859738  0.02963372  0.46019292    -0.19900
F414        F  0.30927188  0.07275507  0.40964085    -0.19600
F415        F  0.33504685  0.19957073  0.57510993    -0.19600
F416        F  0.27039146  0.19053544  0.58844387    -0.20000
F417        F  0.28938612  0.23279575  0.53991928    -0.22600
C418        C  0.08749373  0.07494145  0.59447166    -0.05500
C419        C  0.09140744  0.07782810  0.63575139     0.00400
C420        C  0.12004650  0.10400946  0.65227930    -0.08100
C421        C  0.14290255  0.12815875  0.62672988    -0.05500
C422        C  0.13730351  0.12692248  0.58561621     0.00400
C423        C  0.10990857  0.09940707  0.56894889    -0.08000
C424        C  0.10372680  0.09681910  0.52451869     0.62300
H425        H  0.06504368  0.05489205  0.58259737     0.13000
H426        H  0.16456132  0.14903480  0.63865499     0.13100
C427        C  0.12538653  0.10695059  0.69674443     0.62600
F428        F  0.07572754  0.06798514  0.51452602    -0.22600
F429        F  0.13912888  0.08698151  0.50617813    -0.19900
F430        F  0.09074867  0.13336212  0.51030103    -0.19600
F431        F  0.13668385  0.06999942  0.71138831    -0.19600
F432        F  0.09004874  0.11824528  0.71440625    -0.20000
F433        F  0.15421091  0.13484118  0.70694593    -0.22600
C434        C  0.64125522  0.12823348  0.54732579    -0.05500
C435        C  0.63508355  0.10827894  0.51105121     0.00400
C436        C  0.66093555  0.11757682  0.47869352    -0.08100
C437        C  0.69436847  0.14239707  0.48559254    -0.05500
C438        C  0.70224080  0.15872891  0.52295713     0.00400
C439        C  0.67434816  0.15334560  0.55379655    -0.08000
C440        C  0.68061402  0.17248483  0.59410715     0.62300
H441        H  0.62082784  0.12289125  0.57148954     0.13000
H442        H  0.71602676  0.14746115  0.46236784     0.13100
C443        C  0.65451223  0.10103643  0.43725747     0.62600
F444        F  0.64628320  0.17138451  0.61668008    -0.22600
F445        F  0.69171694  0.21224990  0.58975661    -0.19900
F446        F  0.71006017  0.15226678  0.61430246    -0.19600
F447        F  0.61712108  0.11155890  0.42402695    -0.19600
F448        F  0.65833664  0.05974914  0.43739135    -0.20000
F449        F  0.68186930  0.11623579  0.41047457    -0.22600
C450        C  0.83865522  0.13822144  0.62042347    -0.05500
C451        C  0.83614746  0.13613337  0.57901076     0.00400
C452        C  0.86099157  0.10981494  0.55757616    -0.08100
C453        C  0.88792874  0.08610123  0.57859820    -0.05500
C454        C  0.89060444  0.08822565  0.61994100     0.00400
C455        C  0.86585361  0.11450799  0.64146477    -0.08000
C456        C  0.86859568  0.11746479  0.68616600     0.62300
H457        H  0.81938568  0.15886457  0.63601095     0.13000
H458        H  0.90721900  0.06547536  0.56299708     0.13100
C459        C  0.85906190  0.10701029  0.51277639     0.62600
F460        F  0.84018355  0.14301710  0.70158683    -0.22600
F461        F  0.90566140  0.13193167  0.69671643    -0.19900
F462        F  0.86303915  0.08002576  0.70291775    -0.19600
F463        F  0.88616644  0.07975804  0.49782832    -0.19600
F464        F  0.86744262  0.14404978  0.49640851    -0.20000
F465        F  0.82146173  0.09491627  0.50124594    -0.22600
C466        C  0.28829106  0.81458441  0.52362502    -0.05500
C467        C  0.25624773  0.82155724  0.49821069     0.00400
C468        C  0.26201878  0.84477670  0.46366057    -0.08100
C469        C  0.29886195  0.86424791  0.45805204    -0.05500
C470        C  0.32972031  0.86048306  0.48576926     0.00400
C471        C  0.32557618  0.83243396  0.51708993    -0.08000
C472        C  0.35925461  0.82032241  0.54435215     0.62300
H473        H  0.28383613  0.79578935  0.54945550     0.13000
H474        H  0.30261169  0.88492781  0.43363416     0.13100
C475        C  0.22866299  0.85041381  0.43409729     0.62600
F476        F  0.36069247  0.77889570  0.54661112    -0.22600
F477        F  0.35246803  0.83556495  0.58182485    -0.19900
F478        F  0.39598404  0.83338132  0.53112477    -0.19600
F479        F  0.19766988  0.87094043  0.45166757    -0.19600
F480        F  0.21512937  0.81334886  0.42137834    -0.20000
F481        F  0.24110383  0.87180798  0.40120998    -0.22600
C482        C  0.12117817  0.88098349  0.64423250    -0.05500
C483        C  0.09142197  0.90462164  0.62714552     0.00400
C484        C  0.08698023  0.90529729  0.58529993    -0.08100
C485        C  0.11056837  0.87964519  0.56237285    -0.05500
C486        C  0.13833371  0.85402262  0.57972776     0.00400
C487        C  0.14469008  0.85519892  0.62107770    -0.08000
C488        C  0.17447905  0.82760421  0.64066886     0.62300
H489        H  0.12372503  0.88057850  0.67619444     0.13000
H490        H  0.10651256  0.87877248  0.53052677     0.13100
C491        C  0.05679794  0.93071425  0.56329630     0.62600
F492        F  0.17647130  0.83387040  0.68114264    -0.22600
F493        F  0.21191201  0.83419486  0.62501735    -0.19900
F494        F  0.16355805  0.78810439  0.63412339    -0.19600
F495        F  0.03676764  0.95743114  0.58728192    -0.19600
F496        F  0.02919717  0.90579274  0.54535656    -0.20000
F497        F  0.07610782  0.95273256  0.53434899    -0.22600
C498        C  0.46540457  0.83317265  0.71242336    -0.05500
C499        C  0.49029237  0.79996870  0.70665145     0.00400
C500        C  0.50457150  0.79164550  0.66807520    -0.08100
C501        C  0.49617067  0.81897721  0.63715460    -0.05500
C502        C  0.47325601  0.85363373  0.64360286     0.00400
C503        C  0.45645250  0.86013759  0.68158573    -0.08000
C504        C  0.43091720  0.89655259  0.69024187     0.62300
H505        H  0.45478852  0.83901779  0.74214804     0.13000
H506        H  0.50871040  0.81427071  0.60797919     0.13100
C507        C  0.52962297  0.75477997  0.66019772     0.62600
F508        F  0.42080448  0.89911657  0.72988109    -0.22600
F509        F  0.39611250  0.89407183  0.66871933    -0.19900
F510        F  0.45115755  0.93129876  0.68019067    -0.19600
F511        F  0.50872783  0.72079050  0.67133030    -0.19600
F512        F  0.56448962  0.75695260  0.68172496    -0.20000
F513        F  0.53929983  0.75106884  0.62051785    -0.22600
C514        C  0.53886597  0.84645333  0.84797638    -0.05500
C515        C  0.56531260  0.81998822  0.82986079     0.00400
C516        C  0.60562402  0.81930035  0.84154746    -0.08100
C517        C  0.61871321  0.84721886  0.87018491    -0.05500
C518        C  0.59210880  0.87415739  0.88796955     0.00400
C519        C  0.55127297  0.87292094  0.87763112    -0.08000
C520        C  0.52072770  0.89927161  0.89786578     0.62300
H521        H  0.50791064  0.84538870  0.83920503     0.13000
H522        H  0.64955681  0.84799281  0.87925248     0.13100
C523        C  0.63422198  0.78926240  0.82374363     0.62600
F524        F  0.48247663  0.89140883  0.88485568    -0.22600
F525        F  0.52914397  0.93872518  0.88969464    -0.19900
F526        F  0.52153247  0.89336045  0.93833700    -0.19600
F527        F  0.63614408  0.79469094  0.78321460    -0.19600
F528        F  0.62128680  0.75065367  0.83161156    -0.20000
F529        F  0.67211604  0.79351220  0.83910912    -0.22600
C530        C  0.44956474  0.13473787  0.71234582    -0.05500
C531        C  0.48293326  0.15989222  0.71298447     0.00400
C532        C  0.50898113  0.16073231  0.68021957    -0.08100
C533        C  0.50205502  0.13418692  0.64853212    -0.05500
C534        C  0.47018956  0.10675810  0.64894864     0.00400
C535        C  0.44264303  0.10769543  0.68102570    -0.08000
C536        C  0.40745397  0.07909228  0.68410251     0.62300
H537        H  0.43042200  0.13459693  0.73814960     0.13000
H538        H  0.52263636  0.13341085  0.62385891     0.13100
C539        C  0.54461717  0.18877145  0.67968692     0.62600
F540        F  0.38941834  0.08087661  0.72091411    -0.22600
F541        F  0.41961690  0.03992693  0.67833899    -0.19900
F542        F  0.37919202  0.08928644  0.65631356    -0.19600
F543        F  0.57036362  0.17928020  0.71009562    -0.19600
F544        F  0.53187248  0.22786621  0.68449128    -0.20000
F545        F  0.56537860  0.18636342  0.64439221    -0.22600
C546        C  0.52254840  0.10621849  0.85867215    -0.05500
C547        C  0.54842649  0.13260948  0.83948393     0.00400
C548        C  0.58976804  0.13069956  0.84605098    -0.08100
C549        C  0.60425063  0.10114306  0.87181626    -0.05500
C550        C  0.57822674  0.07470774  0.89122854     0.00400
C551        C  0.53662394  0.07742643  0.88506929    -0.08000
C552        C  0.50710205  0.05013380  0.90600602     0.62300
H553        H  0.49097239  0.10885561  0.85302775     0.13000
H554        H  0.63578165  0.09896295  0.87777920     0.13100
C555        C  0.61789663  0.16023442  0.82646434     0.62600
F556        F  0.51500727  0.01100101  0.89615059    -0.22600
F557        F  0.46825011  0.05811770  0.89522969    -0.19900
F558        F  0.50980547  0.05458112  0.94654853    -0.19600
F559        F  0.65712347  0.15265271  0.83607517    -0.19600
F560        F  0.60887451  0.19874752  0.83869379    -0.20000
F561        F  0.61403309  0.15783026  0.78578780    -0.22600
C562        C  0.53077932  0.13700973  0.34948151    -0.05500
C563        C  0.49729601  0.11147714  0.34868322     0.00400
C564        C  0.47062978  0.11392802  0.31610806    -0.08100
C565        C  0.47941375  0.14083218  0.28513719    -0.05500
C566        C  0.51445811  0.16367140  0.28470549     0.00400
C567        C  0.54035560  0.16236128  0.31750107    -0.08000
C568        C  0.57948576  0.18511421  0.31711057     0.62300
H569        H  0.55089648  0.13519459  0.37438212     0.13000
H570        H  0.46055608  0.14192935  0.25919890     0.13100
C571        C  0.43478308  0.08636019  0.31207544     0.62600
F572        F  0.59771832  0.18468101  0.35382462    -0.22600
F573        F  0.57319018  0.22467824  0.30664729    -0.19900
F574        F  0.60488587  0.16769592  0.28991282    -0.19600
F575        F  0.40838529  0.09338926  0.34266825    -0.19600
F576        F  0.44692978  0.04675991  0.31282204    -0.20000
F577        F  0.41470599  0.09239186  0.27684442    -0.22600
C578        C  0.60417329  0.13475842  0.13764506    -0.05500
C579        C  0.56508209  0.13303129  0.15194954     0.00400
C580        C  0.53871782  0.10275367  0.13832621    -0.08100
C581        C  0.55268365  0.07499152  0.11036996    -0.05500
C582        C  0.59179153  0.07666873  0.09609914     0.00400
C583        C  0.61814461  0.10667590  0.10987702    -0.08000
C584        C  0.66072940  0.10856836  0.09534262     0.62300
H585        H  0.62361375  0.15830459  0.14847550     0.13000
H586        H  0.53313736  0.05173559  0.09910884     0.13100
C587        C  0.49598239  0.10000573  0.15288456     0.62600
F588        F  0.68204103  0.13883724  0.11382800    -0.22600
F589        F  0.66143562  0.11563241  0.05503867    -0.19900
F590        F  0.67934642  0.07252058  0.10305888    -0.19600
F591        F  0.47724538  0.13655495  0.14826063    -0.19600
F592        F  0.49537556  0.08942591  0.19242228    -0.20000
F593        F  0.47435757  0.07148240  0.13216706    -0.22600
C594        C  0.52444368  0.83566118  0.34488199    -0.05500
C595        C  0.49127927  0.86130304  0.34527110     0.00400
C596        C  0.46176008  0.85640188  0.31537550    -0.08100
C597        C  0.46856286  0.82861886  0.28453729    -0.05500
C598        C  0.50317213  0.80549753  0.28286591     0.00400
C599        C  0.53086409  0.80780805  0.31416223    -0.08000
C600        C  0.56747721  0.78139928  0.31437319     0.62300
H601        H  0.54615254  0.83832516  0.36833828     0.13000
H602        H  0.44793702  0.82631210  0.26004420     0.13100
C603        C  0.42403561  0.88123293  0.31457216     0.62600
F604        F  0.58916128  0.78578101  0.34891834    -0.22600
F605        F  0.59191857  0.79113302  0.28287647    -0.19900
F606        F  0.55605602  0.74162012  0.31112298    -0.19600
F607        F  0.43351318  0.92156193  0.31190791    -0.19600
F608        F  0.40218255  0.87417556  0.34856331    -0.20000
F609        F  0.40012020  0.87163318  0.28257794    -0.22600
C610        C  0.53687209  0.84777100  0.13042854    -0.05500
C611        C  0.56289600  0.82257558  0.15075127     0.00400
C612        C  0.60401608  0.82329997  0.14228808    -0.08100
C613        C  0.61810164  0.85029053  0.11348376    -0.05500
C614        C  0.59190388  0.87538135  0.09296721     0.00400
C615        C  0.55055072  0.87399201  0.10106358    -0.08000
C616        C  0.52077001  0.89902708  0.07798438     0.62300
H617        H  0.50546218  0.84601828  0.13733967     0.13000
H618        H  0.64947523  0.85183510  0.10644595     0.13100
C619        C  0.63240391  0.79543538  0.16343551     0.62600
F620        F  0.48255783  0.89463299  0.09260784    -0.22600
F621        F  0.52052263  0.88711817  0.03878770    -0.19900
F622        F  0.53054895  0.93926204  0.08009363    -0.19600
F623        F  0.62266493  0.75604851  0.15476238    -0.19600
F624        F  0.62974064  0.80133350  0.20386960    -0.20000
F625        F  0.67142593  0.80202035  0.15208111    -0.22600
C626        C  0.85146417  0.31072301  0.47807243    -0.05500
C627        C  0.85760194  0.33686158  0.51029121     0.00400
C628        C  0.83640934  0.32961985  0.54616276    -0.08100
C629        C  0.81234480  0.29504973  0.54908877    -0.05500
C630        C  0.80882610  0.26757984  0.51787351     0.00400
C631        C  0.82773894  0.27591110  0.48139270    -0.08000
C632        C  0.82377914  0.24737407  0.44658097     0.62300
H633        H  0.86704506  0.31649729  0.45065184     0.13000
H634        H  0.79813095  0.28761701  0.57694263     0.13100
C635        C  0.83987997  0.35697548  0.58202855     0.62600
F636        F  0.84543011  0.26028431  0.41409584    -0.22600
F637        F  0.78429174  0.24456495  0.43566387    -0.19900
F638        F  0.83733691  0.20975101  0.45688432    -0.19600
F639        F  0.83479005  0.39653289  0.57086775    -0.19600
F640        F  0.87674094  0.35225963  0.59938107    -0.20000
F641        F  0.81137244  0.34818161  0.61035944    -0.22600
C642        C  0.85639233  0.66491529  0.47460115    -0.05500
C643        C  0.85848852  0.63824671  0.50680148     0.00400
C644        C  0.83145451  0.64328009  0.53876273    -0.08100
C645        C  0.80945696  0.67894671  0.54114701    -0.05500
C646        C  0.81056553  0.70745546  0.51082210     0.00400
C647        C  0.83214272  0.69925501  0.47587044    -0.08000
C648        C  0.83005943  0.72736402  0.44069179     0.62300
H649        H  0.87551256  0.66000213  0.44927546     0.13000
H650        H  0.79189989  0.68509137  0.56739376     0.13100
C651        C  0.82430815  0.61203753  0.57053000     0.62600
F652        F  0.85124705  0.71284985  0.40862388    -0.22600
F653        F  0.84539802  0.76451537  0.45070942    -0.19900
F654        F  0.79084542  0.73173350  0.42930434    -0.19600
F655        F  0.84517177  0.62238089  0.60429284    -0.19600
F656        F  0.83518744  0.57406422  0.55821243    -0.20000
F657        F  0.78421701  0.61042573  0.57965024    -0.22600
C658        C  0.12290732  0.32465446  0.53214422    -0.05500
C659        C  0.09736666  0.32523839  0.49909829     0.00400
C660        C  0.09779245  0.29159326  0.47284318    -0.08100
C661        C  0.12247400  0.25852532  0.48176993    -0.05500
C662        C  0.14684897  0.25783010  0.51534970     0.00400
C663        C  0.14772397  0.29167936  0.54059845    -0.08000
C664        C  0.17461138  0.29253008  0.57660362     0.62300
H665        H  0.12274863  0.35020133  0.55198355     0.13000
H666        H  0.12222472  0.23212734  0.46304989     0.13100
C667        C  0.07198205  0.28930880  0.43608445     0.62600
F668        F  0.21353764  0.28671411  0.56482326    -0.22600
F669        F  0.16376723  0.26242496  0.60263401    -0.19900
F670        F  0.17258128  0.32878970  0.59651587    -0.19600
F671        F  0.08566178  0.31658922  0.40845590    -0.19600
F672        F  0.03278861  0.29715936  0.44556893    -0.20000
F673        F  0.07312393  0.25172369  0.41862014    -0.22600
C674        C  0.08212976  0.68588054  0.48490179    -0.05500
C675        C  0.10038585  0.65037692  0.49748875     0.00400
C676        C  0.14025642  0.65184401  0.51091369    -0.08100
C677        C  0.15917320  0.68939576  0.51458671    -0.05500
C678        C  0.14009947  0.72523772  0.50423318     0.00400
C679        C  0.10150252  0.72331366  0.48724302    -0.08000
C680        C  0.07928681  0.75923816  0.47087661     0.62300
H681        H  0.05191460  0.68451671  0.47381148     0.13000
H682        H  0.18895522  0.69079624  0.52676951     0.13100
C683        C  0.16452660  0.61517650  0.52144146     0.62600
F684        F  0.06757465  0.75102205  0.43245565    -0.22600
F685        F  0.10180524  0.79397106  0.46991953    -0.19900
F686        F  0.04577476  0.76599627  0.49363365    -0.19600
F687        F  0.14471412  0.57943486  0.51474514    -0.19600
F688        F  0.17497927  0.61717930  0.56093339    -0.20000
F689        F  0.19881544  0.61492628  0.49880840    -0.22600
C690        C  0.84974483  0.47745212  0.73067624    -0.05500
C691        C  0.81912704  0.50573663  0.72859203     0.00400
C692        C  0.81517193  0.52929942  0.69403640    -0.08100
C693        C  0.84105225  0.52231536  0.66175744    -0.05500
C694        C  0.87168430  0.49374079  0.66368863     0.00400
C695        C  0.87691231  0.47178739  0.69938342    -0.08000
C696        C  0.91255605  0.44482127  0.70611542     0.62300
H697        H  0.85326097  0.46099891  0.75807756     0.13000
H698        H  0.83818739  0.53990987  0.63500550     0.13100
C699        C  0.78500151  0.56294352  0.69235637     0.62600
F700        F  0.91662526  0.43459299  0.74562290    -0.22600
F701        F  0.94711230  0.46428921  0.69470886    -0.19900
F702        F  0.90820856  0.40976130  0.68476616    -0.19600
F703        F  0.78650559  0.58325605  0.65675914    -0.19600
F704        F  0.79243331  0.59026419  0.72235538    -0.20000
F705        F  0.74711524  0.54745930  0.69690214    -0.22600
C706        C  0.83318767  0.60458194  0.85977900    -0.05500
C707        C  0.82473779  0.56349934  0.86321117     0.00400
C708        C  0.84217789  0.54065576  0.89382452    -0.08100
C709        C  0.86903181  0.55974501  0.91934391    -0.05500
C710        C  0.87918137  0.60028775  0.91460061     0.00400
C711        C  0.86048184  0.62354243  0.88517069    -0.08000
C712        C  0.87031924  0.66759711  0.87997939     0.62300
H713        H  0.81940970  0.62124554  0.83599203     0.13000
H714        H  0.88371496  0.54282633  0.94241095     0.13100
C715        C  0.83366604  0.49611577  0.89860422     0.62600
F716        F  0.84619140  0.68542602  0.85192844    -0.22600
F717        F  0.90938719  0.67174000  0.86793359    -0.19900
F718        F  0.86507630  0.68763071  0.91545523    -0.19600
F719        F  0.84330777  0.47596343  0.86412351    -0.19600
F720        F  0.79383878  0.49024224  0.90689149    -0.20000
F721        F  0.85546136  0.47948896  0.92917670    -0.22600
C722        C  0.16174277  0.51852663  0.68942990    -0.05500
C723        C  0.15938550  0.48810116  0.71790571     0.00400
C724        C  0.13611449  0.45357205  0.71018278    -0.08100
C725        C  0.11257002  0.45253836  0.67576849    -0.05500
C726        C  0.11209155  0.48472118  0.64886310     0.00400
C727        C  0.13926162  0.51691259  0.65434812    -0.08000
C728        C  0.14427772  0.55015164  0.62419556     0.62300
H729        H  0.17991326  0.54468588  0.69574053     0.13000
H730        H  0.09283662  0.42733131  0.67086827     0.13100
C731        C  0.13559905  0.41850224  0.73873910     0.62600
F732        F  0.18103463  0.56855209  0.62811700    -0.22600
F733        F  0.11506276  0.57864922  0.62967649    -0.19900
F734        F  0.14196643  0.53494852  0.58614228    -0.19600
F735        F  0.12127206  0.43065996  0.77515853    -0.19600
F736        F  0.17379482  0.40409944  0.74323336    -0.20000
F737        F  0.11184406  0.38734317  0.72525825    -0.22600
C738        C  0.12585817  0.58806398  0.84436231    -0.05500
C739        C  0.13567206  0.54763943  0.85054891     0.00400
C740        C  0.11940334  0.52664638  0.88322459    -0.08100
C741        C  0.09418591  0.54726497  0.90922277    -0.05500
C742        C  0.08478640  0.58774963  0.90341171     0.00400
C743        C  0.10052233  0.60868177  0.87055805    -0.08000
C744        C  0.09091481  0.65254970  0.86383587     0.62300
H745        H  0.13849724  0.60336630  0.81900727     0.13000
H746        H  0.08137211  0.53193171  0.93448811     0.13100
C747        C  0.12819141  0.48257400  0.89038557     0.62600
F748        F  0.10986039  0.66757289  0.83058842    -0.22600
F749        F  0.10302537  0.67482239  0.89624193    -0.19900
F750        F  0.05045684  0.65725617  0.85874858    -0.19600
F751        F  0.16751675  0.47803305  0.90107903    -0.19600
F752        F  0.12074579  0.46063842  0.85640323    -0.20000
F753        F  0.10489545  0.46680469  0.92042235    -0.22600
C754        C  0.80315478  0.52174212  0.31291991    -0.05500
C755        C  0.80574506  0.48985120  0.28592446     0.00400
C756        C  0.82982009  0.45653409  0.29542382    -0.08100
C757        C  0.85340402  0.45799693  0.32986025    -0.05500
C758        C  0.85380338  0.49162988  0.35509897     0.00400
C759        C  0.82581044  0.52278084  0.34805412    -0.08000
C760        C  0.81977736  0.55805368  0.37583300     0.62300
H761        H  0.78479645  0.54721447  0.30523661     0.13000
H762        H  0.87344434  0.43350203  0.33606453     0.13100
C763        C  0.83132433  0.42001835  0.26862987     0.62600
F764        F  0.78111910  0.57193431  0.37345537    -0.22600
F765        F  0.84507400  0.58903512  0.36528905    -0.19900
F766        F  0.82634934  0.54726557  0.41478808    -0.19600
F767        F  0.85656916  0.39085496  0.28319316    -0.19600
F768        F  0.84458078  0.43073919  0.23137507    -0.20000
F769        F  0.79367352  0.40355358  0.26559762    -0.22600
C770        C  0.84529967  0.58883084  0.16244844    -0.05500
C771        C  0.83896637  0.54778090  0.15561186     0.00400
C772        C  0.85961077  0.52798767  0.12488338    -0.08100
C773        C  0.88599807  0.55042273  0.10157411    -0.05500
C774        C  0.89156045  0.59174021  0.10761075     0.00400
C775        C  0.87064484  0.61162613  0.13817545    -0.08000
C776        C  0.87367415  0.65628128  0.14630820     0.62300
H777        H  0.82930209  0.60343527  0.18630371     0.13000
H778        H  0.90243043  0.53597140  0.07796166     0.13100
C779        C  0.85394748  0.48346630  0.11688477     0.62600
F780        F  0.83587710  0.67216418  0.14959224    -0.22600
F781        F  0.89335322  0.67706675  0.11679480    -0.19900
F782        F  0.89358156  0.66228951  0.18160098    -0.19600
F783        F  0.86060768  0.46185436  0.15112601    -0.19600
F784        F  0.87989728  0.46961433  0.08816180    -0.20000
F785        F  0.81564877  0.47627011  0.10389177    -0.22600
C786        C  0.13507232  0.46782176  0.28532785    -0.05500
C787        C  0.16272213  0.49948609  0.28673431     0.00400
C788        C  0.16387078  0.52427345  0.32072191    -0.08100
C789        C  0.13523646  0.51856158  0.35085851    -0.05500
C790        C  0.10573405  0.48852923  0.34845336     0.00400
C791        C  0.10677941  0.46148712  0.31580831    -0.08000
C792        C  0.07703277  0.42736852  0.31187069     0.62300
H793        H  0.13447085  0.44936801  0.25892719     0.13000
H794        H  0.13502957  0.53847081  0.37620278     0.13100
C795        C  0.19478963  0.55733010  0.32436965     0.62600
F796        F  0.08227520  0.40599536  0.27709635    -0.22600
F797        F  0.03878282  0.44238961  0.31193044    -0.19900
F798        F  0.08157917  0.40097619  0.34307265    -0.19600
F799        F  0.18994063  0.58505797  0.29437339    -0.19600
F800        F  0.23235323  0.54087704  0.32158678    -0.20000
F801        F  0.19204728  0.57729970  0.36021388    -0.22600
C802        C  0.13273033  0.54020773  0.13012884    -0.05500
C803        C  0.15059988  0.56657062  0.15702404     0.00400
C804        C  0.14315533  0.60816712  0.15484634    -0.08100
C805        C  0.11606735  0.62206870  0.12627015    -0.05500
C806        C  0.09702184  0.59535657  0.10021718     0.00400
C807        C  0.10581677  0.55379069  0.10161679    -0.08000
C808        C  0.08600945  0.52363990  0.07402144     0.62300
H809        H  0.13948766  0.50854073  0.13237796     0.13000
H810        H  0.10883650  0.65364444  0.12457689     0.13100
C811        C  0.16369439  0.63722112  0.18274604     0.62600
F812        F  0.09954397  0.48501920  0.08038153    -0.22600
F813        F  0.09397413  0.53337054  0.03507087    -0.19900
F814        F  0.04538502  0.52357932  0.07999340    -0.19600
F815        F  0.20445472  0.63368868  0.17880224    -0.19600
F816        F  0.15308179  0.62860843  0.22137269    -0.20000
F817        F  0.15350052  0.67660300  0.17490949    -0.22600
C818        C  0.47688091  0.26773387  0.15312773    -0.05500
C819        C  0.51145913  0.26863572  0.17621933     0.00400
C820        C  0.53629888  0.30290164  0.17521927    -0.08100
C821        C  0.52723776  0.33399667  0.14854652    -0.05500
C822        C  0.49439646  0.33169046  0.12282871     0.00400
C823        C  0.46775558  0.29867268  0.12626038    -0.08000
C824        C  0.43136504  0.29441087  0.10005729     0.62300
H825        H  0.45846183  0.24103690  0.15443169     0.13000
H826        H  0.54680244  0.35978749  0.14650434     0.13100
C827        C  0.57281779  0.30584902  0.20137598     0.62600
F828        F  0.41055426  0.25934193  0.10769435    -0.22600
F829        F  0.44277595  0.29376969  0.06070534    -0.19900
F830        F  0.40588315  0.32615922  0.10666444    -0.19600
F831        F  0.59890415  0.27520868  0.19241360    -0.19600
F832        F  0.56154131  0.30275703  0.24063436    -0.20000
F833        F  0.59265717  0.34200124  0.19647191    -0.22600
C834        C  0.52367232  0.66284121  0.17877183    -0.05500
C835        C  0.49618586  0.69427539  0.17938899     0.00400
C836        C  0.46076413  0.69077983  0.15708374    -0.08100
C837        C  0.45592209  0.65750164  0.13168827    -0.05500
C838        C  0.48530573  0.62781854  0.12834337     0.00400
C839        C  0.51804957  0.62879875  0.15474677    -0.08000
C840        C  0.54840400  0.59548802  0.15756680     0.62300
H841        H  0.55068895  0.66575273  0.19602695     0.13000
H842        H  0.43032298  0.65593552  0.11237617     0.13100
C843        C  0.42916703  0.72305337  0.15900245     0.62600
F844        F  0.55959931  0.59025738  0.19662435    -0.22600
F845        F  0.58151653  0.60582562  0.13552926    -0.19900
F846        F  0.53351099  0.55911022  0.14440819    -0.19600
F847        F  0.44453322  0.75922524  0.14590519    -0.19600
F848        F  0.41638803  0.72734219  0.19769129    -0.20000
F849        F  0.39652307  0.71355577  0.13585690    -0.22600
C850        C  0.50335553  0.62785667  0.84330016    -0.05500
C851        C  0.47859248  0.63562598  0.87594052     0.00400
C852        C  0.45959517  0.67349193  0.87886204    -0.08100
C853        C  0.46560902  0.70186296  0.84846356    -0.05500
C854        C  0.49190190  0.69480165  0.81692478     0.00400
C855        C  0.51111427  0.65724972  0.81421675    -0.08000
C856        C  0.54177056  0.64955930  0.78220759     0.62300
H857        H  0.51836484  0.59920446  0.84194858     0.13000
H858        H  0.45246066  0.73138033  0.85080642     0.13100
C859        C  0.43629984  0.68562976  0.91552336     0.62600
F860        F  0.55587663  0.61064634  0.78345097    -0.22600
F861        F  0.57366731  0.67541264  0.78707296    -0.19900
F862        F  0.52501136  0.65588074  0.74540474    -0.19600
F863        F  0.45869258  0.67860238  0.94912043    -0.19600
F864        F  0.40129511  0.66399732  0.91759417    -0.20000
F865        F  0.42670132  0.72598631  0.91518598    -0.22600
C866        C  0.63379307  0.51969586  0.84478362    -0.05500
C867        C  0.63278479  0.48727158  0.87135115     0.00400
C868        C  0.66422545  0.45883086  0.87031686    -0.08100
C869        C  0.69649616  0.46560524  0.84444761    -0.05500
C870        C  0.69902035  0.50005321  0.82077874     0.00400
C871        C  0.66636859  0.52666093  0.81954084    -0.08000
C872        C  0.66548991  0.56413689  0.79415120     0.62300
H873        H  0.60955535  0.54102699  0.84491001     0.13000
H874        H  0.72207406  0.44600781  0.84528481     0.13100
C875        C  0.66587100  0.42337296  0.89850392     0.62600
F876        F  0.63056612  0.56480447  0.77261128    -0.22600
F877        F  0.69672155  0.56616766  0.76763882    -0.19900
F878        F  0.66684823  0.59760494  0.81835026    -0.19600
F879        F  0.63411120  0.39791944  0.89149796    -0.19600
F880        F  0.66472260  0.43685713  0.93724326    -0.20000
F881        F  0.70034522  0.40133418  0.89389249    -0.22600
C882        C  0.45336205  0.29905339  0.87910228    -0.05500
C883        C  0.48100934  0.33044498  0.87410617     0.00400
C884        C  0.50677212  0.32980458  0.84077184    -0.08100
C885        C  0.50752569  0.29540521  0.81673553    -0.05500
C886        C  0.48252529  0.26263479  0.82400008     0.00400
C887        C  0.45387132  0.26480454  0.85461766    -0.08000
C888        C  0.42510065  0.23036366  0.86211272     0.62300
H889        H  0.43304518  0.30026877  0.90395486     0.13000
H890        H  0.52952629  0.29300028  0.79337853     0.13100
C891        C  0.53521323  0.36367845  0.83072140     0.62600
F892        F  0.39746050  0.23981330  0.89100905    -0.22600
F893        F  0.44551825  0.19670908  0.87439627    -0.19900
F894        F  0.40480793  0.22141346  0.82761182    -0.19600
F895        F  0.57136168  0.35678601  0.84876812    -0.19600
F896        F  0.52047753  0.40044123  0.84260056    -0.20000
F897        F  0.54128332  0.36564530  0.79022911    -0.22600
C898        C  0.29412157  0.51900139  0.82657828    -0.05500
C899        C  0.26684575  0.48737159  0.82346987     0.00400
C900        C  0.27438773  0.45099677  0.84349996    -0.08100
C901        C  0.30724656  0.44893424  0.86934789    -0.05500
C902        C  0.33260114  0.48209670  0.87559227     0.00400
C903        C  0.32724157  0.51697635  0.85188990    -0.08000
C904        C  0.35506151  0.55285198  0.85391317     0.62300
H905        H  0.28761104  0.54661987  0.81104126     0.13000
H906        H  0.31204747  0.42190283  0.88631790     0.13100
C907        C  0.24714362  0.41500194  0.83810189     0.62600
F908        F  0.34913471  0.57892245  0.82260093    -0.22600
F909        F  0.39416820  0.54030105  0.85234933    -0.19900
F910        F  0.34829032  0.57377558  0.88857435    -0.19600
F911        F  0.24700630  0.40380219  0.79867654    -0.19600
F912        F  0.20884509  0.42446177  0.84949549    -0.20000
F913        F  0.25943054  0.38245392  0.86027520    -0.22600
C914        C  0.27483623  0.46233636  0.16324555    -0.05500
C915        C  0.27601582  0.49839331  0.18468826     0.00400
C916        C  0.30860661  0.52482449  0.17898791    -0.08100
C917        C  0.33759309  0.51529533  0.15049134    -0.05500
C918        C  0.33541889  0.48037329  0.12718742     0.00400
C919        C  0.30337531  0.45304489  0.13387268    -0.08000
C920        C  0.29685458  0.41591521  0.10852602     0.62300
H921        H  0.24919238  0.44303943  0.16738464     0.13000
H922        H  0.36153190  0.53650702  0.14517040     0.13100
C923        C  0.31152768  0.56540283  0.19910891     0.62600
F924        F  0.25986671  0.39876941  0.11502096    -0.22600
F925        F  0.32508711  0.38746297  0.11763609    -0.19900
F926        F  0.29901554  0.42567896  0.06878770    -0.19600
F927        F  0.28915127  0.56697469  0.23342841    -0.19600
F928        F  0.29844407  0.59466893  0.17330031    -0.20000
F929        F  0.35061876  0.57355991  0.20913235    -0.22600
C930        C  0.70110872  0.45639057  0.14744947    -0.05500
C931        C  0.70463015  0.49001455  0.17219323     0.00400
C932        C  0.67458325  0.51950358  0.17139520    -0.08100
C933        C  0.64291876  0.51539152  0.14427572    -0.05500
C934        C  0.64054624  0.48311332  0.11741027     0.00400
C935        C  0.66959597  0.45216088  0.12005307    -0.08000
C936        C  0.66897183  0.41571261  0.09301059     0.62300
H937        H  0.72480171  0.43452296  0.14819981     0.13000
H938        H  0.62046346  0.53841357  0.14291813     0.13100
C939        C  0.67738608  0.55631395  0.19770765     0.62600
F940        F  0.70094357  0.39061513  0.09970131    -0.22600
F941        F  0.67060325  0.42780022  0.05388041    -0.19900
F942        F  0.63469352  0.39368231  0.09957915    -0.19600
F943        F  0.70910902  0.57994740  0.18588825    -0.19600
F944        F  0.68293625  0.54474235  0.23660167    -0.20000
F945        F  0.64327907  0.57923899  0.19599595    -0.22600
loop_ 
_geom_bond_atom_site_label_1 
_geom_bond_atom_site_label_2 
_geom_bond_distance 
_geom_bond_site_symmetry_2 
_ccdc_geom_bond_type 
C1           N19   1.355       .  A
C1           C38   1.459       .  S
C1          C822   1.492       .  S
N2           N19   1.327       .  A
N2           N24   1.320       .  A
N2          Co39   2.103   1_554  S
C3           N28   1.342       .  A
C3           C41   1.465       .  S
C3           H48   1.082       .  S
H4           C45   1.081       .  S
C5           N29   1.343       .  A
C5            C9   1.462       .  S
C5           H34   1.081       .  S
Co6          N24   2.080   1_556  S
Co6          N14   2.096   1_556  S
Co6          N46   2.090       .  S
Co6          N22   2.090       .  S
Co6         Cl50   2.452       .  S
N7           C45   1.346       .  A
N7           N14   1.319       .  A
N7           Co8   2.103   1_554  S
Co8          N11   2.098   1_556  S
Co8          N28   2.095       .  S
Co8          N15   2.096       .  S
Co8         Cl50   2.457       .  S
C9           N47   1.353       .  A
C9          C838   1.488       .  S
N10          N17   1.318       .  A
N10          N40   1.325       .  A
N10         Co43   2.095       .  S
N11          N29   1.321       .  A
N11          N47   1.326       .  A
N12          C41   1.351       .  A
N12          N22   1.325       .  A
H13          C38   1.081       .  S
N14          N35   1.327       .  A
N15          N33   1.320       .  A
N15          N20   1.327       .  A
C16          N20   1.352       .  A
C16          C44   1.462       .  S
C16         C851   1.490       .  S
N17          C32   1.343       .  A
N17         Co39   2.088   1_554  S
C18          N46   1.340       .  A
C18          C21   1.464       .  S
C18          H52   1.079       .  S
C21          N42   1.351       .  A
C21         C883   1.486       .  S
N22          N28   1.320       .  A
N23          C49   1.346       .  A
N23          N25   1.320       .  A
N23         Co39   2.103       .  S
N24          C38   1.339       .  A
N25          N53   1.325       .  A
N25         Co43   2.093   1_556  S
H26          C49   1.081       .  S
H27          C44   1.077       .  S
N29         Co43   2.090       .  S
N30          N42   1.326       .  A
N30          N46   1.319       .  A
N30         Co39   2.085       .  S
C31          N35   1.352       .  A
C31          C45   1.470       .  S
C31         C934   1.506       .  S
C32          C51   1.469       .  S
C32          H36   1.077       .  S
N33          C44   1.343       .  A
N33         Co43   2.094   1_556  S
C37          N53   1.351       .  A
C37          C49   1.469       .  S
C37         C902   1.498       .  S
Co39        Cl50   2.459       .  S
N40          C51   1.355       .  A
C41         C867   1.494       .  S
Co43        Cl50   2.455   1_554  S
C51         C918   1.499       .  S
C54         C915   1.489       .  S
C54          C55   1.400       .  A
C54          C59   1.419       .  A
C55          H60   1.085       .  S
C55          C56   1.392       .  A
C56         C803   1.471       .  S
C56          C57   1.397       .  A
C57          H61   1.085       .  S
C57          C58   1.403       .  A
C58         C787   1.495       .  S
C58          C59   1.419       .  A
C59          H62   1.083       .  S
C63         C931   1.490       .  S
C63          C64   1.400       .  A
C63          C68   1.419       .  A
C64          H69   1.085       .  S
C64          C65   1.394       .  A
C65         C771   1.471       .  S
C65          C66   1.394       .  A
C66          H70   1.085       .  S
C66          C67   1.402       .  A
C67         C755   1.488       .  S
C67          C68   1.418       .  A
C68          H71   1.083       .  S
C72         C723   1.481       .  S
C72          C73   1.411       .  A
C72          C77   1.404       .  A
C73          H78   1.083       .  S
C73          C74   1.410       .  A
C74         C899   1.482       .  S
C74          C75   1.401       .  A
C75          H79   1.084       .  S
C75          C76   1.395       .  A
C76         C739   1.477       .  S
C76          C77   1.398       .  A
C77          H80   1.084       .  S
C81         C691   1.488       .  S
C81          C82   1.414       .  A
C81          C86   1.401       .  A
C82          H87   1.083       .  S
C82          C83   1.414       .  A
C83         C870   1.482       .  S
C83          C84   1.401       .  A
C84          H88   1.085       .  S
C84          C85   1.393       .  A
C85         C707   1.470       .  S
C85          C86   1.396       .  A
C86          H89   1.085       .  S
N90          C95   1.355   1_655  A
N90          C94   1.354       .  A
N90         H122   1.038       .  S
N91          C98   1.350   1_554  A
N91          C99   1.349       .  A
N92          C97   1.354   1_655  A
N92          C96   1.354       .  A
N92         H123   1.037       .  S
N93         C100   1.350   1_554  A
N93         C101   1.351       .  A
C94         C102   1.388       .  A
C94         C110   1.416       .  A
C95         C111   1.415       .  A
C95         C103   1.387       .  A
C96         C104   1.387       .  A
C96         C113   1.415       .  A
C97         C112   1.417       .  A
C97         C105   1.388       .  A
C98         C110   1.409       .  A
C98         C106   1.386       .  A
C99         C113   1.409       .  A
C99         C107   1.386       .  A
C100        C108   1.386       .  A
C100        C111   1.411       .  A
C101        C109   1.386       .  A
C101        C112   1.412       .  A
C102        H114   1.082       .  S
C102        C103   1.369   1_655  A
C103        H115   1.082       .  S
C104        H116   1.082       .  S
C104        C105   1.371   1_655  A
C105        H117   1.082       .  S
C106        H118   1.083       .  S
C106        C107   1.369   1_556  A
C107        H119   1.083       .  S
C108        H120   1.083       .  S
C108        C109   1.372   1_556  A
C109        H121   1.082       .  S
C110        C710   1.484       .  S
C111        C742   1.487       .  S
C112        C806   1.487       .  S
C113        C774   1.482       .  S
C124        N142   1.356       .  A
C124        C161   1.474       .  S
C124        C659   1.508       .  S
N125        N142   1.327       .  A
N125        N147   1.319       .  A
N125       Co162   2.101   1_455  S
C126        N151   1.342       .  A
C126        C164   1.468       .  S
C126        H171   1.078       .  S
H127        C168   1.082       .  S
C128        N152   1.342       .  A
C128        C132   1.461       .  S
C128        H157   1.081       .  S
Co129       N147   2.100   1_655  S
Co129       N137   2.117   1_655  S
Co129       N169   2.105       .  S
Co129       N145   2.098       .  S
Co129      Cl173   2.461       .  S
N130        C168   1.343       .  A
N130        N137   1.322       .  A
N130       Co131   2.099   1_455  S
Co131       N134   2.093   1_655  S
Co131       N151   2.088       .  S
Co131       N138   2.094       .  S
Co131      Cl173   2.457       .  S
C132        N170   1.351       .  A
C132        C675   1.480       .  S
N133        N140   1.321       .  A
N133        N163   1.326       .  A
N133       Co166   2.098   1_455  S
N134        N152   1.320       .  A
N134        N170   1.327       .  A
N135        C164   1.356       .  A
N135        N145   1.327       .  A
H136        C161   1.076       .  S
N137        N158   1.331       .  A
N138        N156   1.320       .  A
N138        N143   1.326       .  A
C139        N143   1.353       .  A
C139        C167   1.466       .  S
C139        C643   1.491       .  S
N140        C155   1.340       .  A
N140       Co162   2.085   1_455  S
C141        N169   1.345       .  A
C141        C144   1.472       .  S
C141        H175   1.081       .  S
C144        N165   1.350       .  A
C144        C627   1.497       .  S
N145        N151   1.317       .  A
N146        C172   1.343       .  A
N146        N148   1.319       .  A
N146       Co162   2.100       .  S
N147        C161   1.344       .  A
N148        N176   1.328       .  A
N148       Co166   2.095       .  S
H149        C172   1.078       .  S
H150        C167   1.080       .  S
N152       Co166   2.091   1_455  S
N153        N165   1.323       .  A
N153        N169   1.320       .  A
N153       Co162   2.084       .  S
C154        N158   1.357       .  A
C154        C168   1.465       .  S
C154        C790   1.505       .  S
C155        C174   1.462       .  S
C155        H159   1.081       .  S
N156        C167   1.341       .  A
N156       Co166   2.093       .  S
C160        N176   1.353       .  A
C160        C172   1.466       .  S
C160        C694   1.495       .  S
Co162      Cl173   2.453       .  S
N163        C174   1.354       .  A
C164        C758   1.500       .  S
Co166      Cl173   2.460       .  S
C174        C726   1.489       .  S
C177        C598   1.483       .  S
C177        C178   1.413       .  A
C177        C182   1.401       .  A
C178        H183   1.083       .  S
C178        C179   1.413       .  A
C179        C835   1.482       .  S
C179        C180   1.400       .  A
C180        H184   1.085       .  S
C180        C181   1.393       .  A
C181        C611   1.468       .  S
C181        C182   1.394       .  A
C182        H185   1.085       .  S
C186        C819   1.483       .  S
C186        C187   1.404       .  A
C186        C191   1.411       .  A
C187        H192   1.085       .  S
C187        C188   1.397       .  A
C188        C579   1.474       .  S
C188        C189   1.393       .  A
C189        H193   1.085       .  S
C189        C190   1.399       .  A
C190        C566   1.480       .  S
C190        C191   1.412       .  A
C191        H194   1.083       .  S
C195        C886   1.475       .  S
C195        C196   1.399       .  A
C195        C200   1.411       .  A
C196        H201   1.085       .  S
C196        C197   1.391       .  A
C197        C547   1.462       .  S
C197        C198   1.391       .  A
C198        H202   1.085       .  S
C198        C199   1.399       .  A
C199        C531   1.476       .  S
C199        C200   1.410       .  A
C200        H203   1.083       .  S
C204        C499   1.494       .  S
C204        C205   1.406       .  A
C204        C209   1.418       .  A
C205        H210   1.085       .  S
C205        C206   1.398       .  A
C206        C515   1.472       .  S
C206        C207   1.391       .  A
C207        H211   1.085       .  S
C207        C208   1.398       .  A
C208        C854   1.487       .  S
C208        C209   1.417       .  A
C209        H212   1.083       .  S
N213        C218   1.351       .  A
N213        C217   1.354   1_556  A
N213        H245   1.031       .  S
N214        C221   1.351   1_565  A
N214        C222   1.349       .  A
N215        C220   1.356       .  A
N215        C219   1.353   1_556  A
N215        H246   1.032       .  S
N216        C223   1.350   1_565  A
N216        C224   1.351       .  A
C217        C225   1.387       .  A
C217        C233   1.414       .  A
C218        C234   1.414       .  A
C218        C226   1.389       .  A
C219        C227   1.388       .  A
C219        C236   1.416       .  A
C220        C235   1.417       .  A
C220        C228   1.387       .  A
C221        C233   1.412       .  A
C221        C229   1.385   1_545  A
C222        C236   1.412       .  A
C222        C230   1.387       .  A
C223        C231   1.386   1_545  A
C223        C234   1.412       .  A
C224        C232   1.386       .  A
C224        C235   1.413       .  A
C225        H237   1.082       .  S
C225        C226   1.369   1_554  A
C226        H238   1.082       .  S
C227        H239   1.082       .  S
C227        C228   1.371   1_554  A
C228        H240   1.082       .  S
C229        H241   1.082   1_565  S
C229        C230   1.371       .  A
C230        H242   1.082       .  S
C231        H243   1.082   1_565  S
C231        C232   1.373       .  A
C232        H244   1.082       .  S
C233        C582   1.486       .  S
C234        C550   1.480       .  S
C235        C518   1.491       .  S
C236        C614   1.482       .  S
C247        C678   1.487       .  S
C247        C248   1.410       .  A
C247        C252   1.406       .  A
C248        H253   1.083       .  S
C248        C249   1.407       .  A
C249        C467   1.478       .  S
C249        C250   1.400       .  A
C250        H254   1.085       .  S
C250        C251   1.396       .  A
C251        C486   1.474       .  S
C251        C252   1.401       .  A
C252        H255   1.084       .  S
C256        C438   1.484       .  S
C256        C257   1.413       .  A
C256        C261   1.402       .  A
C257        H262   1.083       .  S
C257        C258   1.412       .  A
C258        C630   1.484       .  S
C258        C259   1.401       .  A
C259        H263   1.085       .  S
C259        C260   1.394       .  A
C260        C451   1.470       .  S
C260        C261   1.395       .  A
C261        H264   1.085       .  S
C265        C662   1.494       .  S
C265        C266   1.405       .  A
C265        C270   1.417       .  A
C266        H271   1.084       .  S
C266        C267   1.400       .  A
C267        C422   1.476       .  S
C267        C268   1.394       .  A
C268        H272   1.085       .  S
C268        C269   1.402       .  A
C269        C403   1.490       .  S
C269        C270   1.416       .  A
C270        H273   1.083       .  S
C274        C371   1.479       .  S
C274        C275   1.402       .  A
C274        C279   1.410       .  A
C275        H280   1.085       .  S
C275        C276   1.396       .  A
C276        C387   1.470       .  S
C276        C277   1.394       .  A
C277        H281   1.085       .  S
C277        C278   1.400       .  A
C278        C646   1.477       .  S
C278        C279   1.409       .  A
C279        H282   1.083       .  S
N283        C288   1.357   1_565  A
N283        C287   1.358       .  A
N283        H315   1.039       .  S
N284        C291   1.343       .  A
N284        C292   1.350   1_655  A
N285        C290   1.351   1_565  A
N285        C289   1.352       .  A
N285        H316   1.045       .  S
N286        C293   1.344       .  A
N286        C294   1.351   1_655  A
C287        C295   1.386       .  A
C287        C303   1.417       .  A
C288        C304   1.418       .  A
C288        C296   1.387       .  A
C289        C297   1.385       .  A
C289        C306   1.402       .  A
C290        C305   1.401       .  A
C290        C298   1.385       .  A
C291        C303   1.409       .  A
C291        C299   1.389       .  A
C292        C306   1.408       .  A
C292        C300   1.385       .  A
C293        C301   1.389       .  A
C293        C304   1.410       .  A
C294        C302   1.384       .  A
C294        C305   1.409       .  A
C295        H307   1.082       .  S
C295        C296   1.369   1_565  A
C296        H308   1.082       .  S
C297        H309   1.083       .  S
C297        C298   1.369   1_565  A
C298        H310   1.083       .  S
C299        H311   1.082       .  S
C299        C300   1.374   1_655  A
C300        H312   1.083       .  S
C301        H313   1.082       .  S
C301        C302   1.374   1_655  A
C302        H314   1.083       .  S
C303        C390   1.481       .  S
C304        C454   1.481       .  S
C305        C419   1.481       .  S
C306        C483   1.479       .  S
C317        N335   1.353       .  A
C317        C354   1.466       .  S
C317        C595   1.499       .  S
N318        N335   1.326       .  A
N318        N340   1.320       .  A
N318       Co355   2.097       .  S
C319        N344   1.343       .  A
C319        C357   1.472       .  S
C319        H364   1.081       .  S
H320        C361   1.081       .  S
C321        N345   1.346       .  A
C321        C325   1.468       .  S
C321        H350   1.080       .  S
Co322       N340   2.091       .  S
Co322       N330   2.093       .  S
Co322       N362   2.084   1_565  S
Co322       N338   2.092   1_565  S
Co322      Cl366   2.450       .  S
N323        C361   1.339       .  A
N323        N330   1.317       .  A
N323       Co324   2.082       .  S
Co324       N327   2.093       .  S
Co324       N344   2.097   1_565  S
Co324       N331   2.093   1_565  S
Co324      Cl366   2.459       .  S
C325        N363   1.352       .  A
C325        C502   1.493       .  S
N326        N333   1.319       .  A
N326        N356   1.323       .  A
N326       Co359   2.078       .  S
N327        N345   1.320       .  A
N327        N363   1.327       .  A
N328        C357   1.351       .  A
N328        N338   1.325       .  A
H329        C354   1.081       .  S
N330        N351   1.325       .  A
N331        N349   1.318       .  A
N331        N336   1.326       .  A
C332        N336   1.355       .  A
C332        C360   1.460       .  S
C332        C534   1.487       .  S
N333        C348   1.345       .  A
N333       Co355   2.097       .  S
C334        N362   1.340       .  A
C334        C337   1.462       .  S
C334        H368   1.081       .  S
C337        N358   1.354       .  A
C337        C563   1.494       .  S
N338        N344   1.319       .  A
N339        C365   1.345       .  A
N339        N341   1.320       .  A
N339       Co355   2.101   1_545  S
N340        C354   1.342       .  A
N341        N369   1.328       .  A
N341       Co359   2.100   1_545  S
H342        C365   1.080       .  S
H343        C360   1.077       .  S
N345       Co359   2.106       .  S
N346        N358   1.327       .  A
N346        N362   1.319       .  A
N346       Co355   2.097   1_545  S
C347        N351   1.353       .  A
C347        C361   1.467       .  S
C347        C374   1.500       .  S
C348        C367   1.466       .  S
C348        H352   1.081       .  S
N349        C360   1.338       .  A
N349       Co359   2.076   1_545  S
C353        N369   1.353       .  A
C353        C365   1.469       .  S
C353        C406   1.496       .  S
Co355      Cl366   2.458       .  S
N356        C367   1.349       .  A
C357        C435   1.504       .  S
Co359      Cl366   2.447       .  S
C367        C470   1.482       .  S
C370        H377   1.083       .  S
C370        C371   1.398       .  A
C370        C375   1.410       .  A
C371        C372   1.412       .  A
C372        C373   1.407       .  A
C372        C379   1.520       .  S
C373        H378   1.080       .  S
C373        C374   1.410       .  A
C374        C375   1.427       .  A
C375        C376   1.519       .  S
C376        F380   1.385       .  S
C376        F381   1.383       .  S
C376        F382   1.383       .  S
C379        F383   1.382       .  S
C379        F384   1.383       .  S
C379        F385   1.385       .  S
C386        H393   1.083       .  S
C386        C387   1.402       .  A
C386        C391   1.404       .  A
C387        C388   1.413       .  A
C388        C389   1.402       .  A
C388        C395   1.517       .  S
C389        H394   1.084       .  S
C389        C390   1.403       .  A
C390        C391   1.411       .  A
C391        C392   1.516       .  S
C392        F396   1.382       .  S
C392        F397   1.384       .  S
C392        F398   1.382       .  S
C395        F399   1.383       .  S
C395        F400   1.382       .  S
C395        F401   1.385       .  S
C402        H409   1.083       .  S
C402        C403   1.402       .  A
C402        C407   1.411       .  A
C403        C404   1.415       .  A
C404        C405   1.416       .  A
C404        C411   1.518       .  S
C405        H410   1.083       .  S
C405        C406   1.409       .  A
C406        C407   1.422       .  A
C407        C408   1.519       .  S
C408        F412   1.384       .  S
C408        F413   1.384       .  S
C408        F414   1.381       .  S
C411        F415   1.384       .  S
C411        F416   1.383       .  S
C411        F417   1.383       .  S
C418        H425   1.084       .  S
C418        C419   1.404       .  A
C418        C423   1.404       .  A
C419        C420   1.412       .  A
C420        C421   1.407       .  A
C420        C427   1.516       .  S
C421        H426   1.083       .  S
C421        C422   1.402       .  A
C422        C423   1.414       .  A
C423        C424   1.518       .  S
C424        F428   1.385       .  S
C424        F429   1.383       .  S
C424        F430   1.383       .  S
C427        F431   1.383       .  S
C427        F432   1.383       .  S
C427        F433   1.384       .  S
C434        H441   1.081       .  S
C434        C435   1.409       .  A
C434        C439   1.407       .  A
C435        C436   1.430       .  A
C436        C437   1.413       .  A
C436        C443   1.519       .  S
C437        H442   1.083       .  S
C437        C438   1.399       .  A
C438        C439   1.413       .  A
C439        C440   1.518       .  S
C440        F444   1.384       .  S
C440        F445   1.384       .  S
C440        F446   1.382       .  S
C443        F447   1.383       .  S
C443        F448   1.383       .  S
C443        F449   1.385       .  S
C450        H457   1.083       .  S
C450        C451   1.403       .  A
C450        C455   1.406       .  A
C451        C452   1.413       .  A
C452        C453   1.400       .  A
C452        C459   1.518       .  S
C453        H458   1.084       .  S
C453        C454   1.401       .  A
C454        C455   1.412       .  A
C455        C456   1.516       .  S
C456        F460   1.384       .  S
C456        F461   1.382       .  S
C456        F462   1.383       .  S
C459        F463   1.385       .  S
C459        F464   1.381       .  S
C459        F465   1.383       .  S
C466        H473   1.085       .  S
C466        C467   1.400       .  A
C466        C471   1.404       .  A
C467        C468   1.414       .  A
C468        C469   1.410       .  A
C468        C475   1.516       .  S
C469        H474   1.083       .  S
C469        C470   1.405       .  A
C470        C471   1.419       .  A
C471        C472   1.518       .  S
C472        F476   1.384       .  S
C472        F477   1.383       .  S
C472        F478   1.383       .  S
C475        F479   1.383       .  S
C475        F480   1.383       .  S
C475        F481   1.384       .  S
C482        H489   1.083       .  S
C482        C483   1.402       .  A
C482        C487   1.407       .  A
C483        C484   1.422       .  A
C484        C485   1.401       .  A
C484        C491   1.521       .  S
C485        H490   1.085       .  S
C485        C486   1.399       .  A
C486        C487   1.414       .  A
C487        C488   1.517       .  S
C488        F492   1.385       .  S
C488        F493   1.382       .  S
C488        F494   1.383       .  S
C491        F495   1.381       .  S
C491        F496   1.383       .  S
C491        F497   1.383       .  S
C498        H505   1.083       .  S
C498        C499   1.404       .  A
C498        C503   1.411       .  A
C499        C500   1.416       .  A
C500        C501   1.417       .  A
C500        C507   1.516       .  S
C501        H506   1.083       .  S
C501        C502   1.408       .  A
C502        C503   1.418       .  A
C503        C504   1.518       .  S
C504        F508   1.384       .  S
C504        F509   1.382       .  S
C504        F510   1.384       .  S
C507        F511   1.383       .  S
C507        F512   1.383       .  S
C507        F513   1.385       .  S
C514        H521   1.084       .  S
C514        C515   1.396       .  A
C514        C519   1.397       .  A
C515        C516   1.414       .  A
C516        C517   1.411       .  A
C516        C523   1.515       .  S
C517        H522   1.083       .  S
C517        C518   1.405       .  A
C518        C519   1.419       .  A
C519        C520   1.517       .  S
C520        F524   1.385       .  S
C520        F525   1.372       .  S
C520        F526   1.382       .  S
C523        F527   1.383       .  S
C523        F528   1.383       .  S
C523        F529   1.384       .  S
C530        H537   1.083       .  S
C530        C531   1.399       .  A
C530        C535   1.408       .  A
C531        C532   1.411       .  A
C532        C533   1.407       .  A
C532        C539   1.517       .  S
C533        H538   1.083       .  S
C533        C534   1.406       .  A
C534        C535   1.426       .  A
C535        C536   1.521       .  S
C536        F540   1.384       .  S
C536        F541   1.383       .  S
C536        F542   1.381       .  S
C539        F543   1.383       .  S
C539        F544   1.383       .  S
C539        F545   1.384       .  S
C546        H553   1.084       .  S
C546        C547   1.395       .  A
C546        C551   1.396       .  A
C547        C548   1.411       .  A
C548        C549   1.405       .  A
C548        C555   1.515       .  S
C549        H554   1.083       .  S
C549        C550   1.402       .  A
C550        C551   1.419       .  A
C551        C552   1.519       .  S
C552        F556   1.373       .  S
C552        F557   1.385       .  S
C552        F558   1.381       .  S
C555        F559   1.384       .  S
C555        F560   1.383       .  S
C555        F561   1.383       .  S
C562        H569   1.082       .  S
C562        C563   1.409       .  A
C562        C567   1.409       .  A
C563        C564   1.424       .  A
C564        C565   1.409       .  A
C564        C571   1.519       .  S
C565        H570   1.083       .  S
C565        C566   1.401       .  A
C566        C567   1.411       .  A
C567        C568   1.517       .  S
C568        F572   1.385       .  S
C568        F573   1.383       .  S
C568        F574   1.383       .  S
C571        F575   1.382       .  S
C571        F576   1.384       .  S
C571        F577   1.385       .  S
C578        H585   1.083       .  S
C578        C579   1.402       .  A
C578        C583   1.406       .  A
C579        C580   1.418       .  A
C580        C581   1.403       .  A
C580        C587   1.522       .  S
C581        H586   1.083       .  S
C581        C582   1.402       .  A
C582        C583   1.413       .  A
C583        C584   1.515       .  S
C584        F588   1.384       .  S
C584        F589   1.382       .  S
C584        F590   1.383       .  S
C587        F591   1.383       .  S
C587        F592   1.382       .  S
C587        F593   1.385       .  S
C594        H601   1.082       .  S
C594        C595   1.409       .  A
C594        C599   1.409       .  A
C595        C596   1.426       .  A
C596        C597   1.412       .  A
C596        C603   1.519       .  S
C597        H602   1.083       .  S
C597        C598   1.401       .  A
C598        C599   1.412       .  A
C599        C600   1.518       .  S
C600        F604   1.384       .  S
C600        F605   1.382       .  S
C600        F606   1.383       .  S
C603        F607   1.383       .  S
C603        F608   1.383       .  S
C603        F609   1.385       .  S
C610        H617   1.084       .  S
C610        C611   1.398       .  A
C610        C615   1.399       .  A
C611        C612   1.413       .  A
C612        C613   1.407       .  A
C612        C619   1.516       .  S
C613        H618   1.083       .  S
C613        C614   1.402       .  A
C614        C615   1.419       .  A
C615        C616   1.523       .  S
C616        F620   1.384       .  S
C616        F621   1.382       .  S
C616        F622   1.381       .  S
C619        F623   1.383       .  S
C619        F624   1.383       .  S
C619        F625   1.384       .  S
C626        H633   1.081       .  S
C626        C627   1.408       .  A
C626        C631   1.410       .  A
C627        C628   1.426       .  A
C628        C629   1.409       .  A
C628        C635   1.520       .  S
C629        H634   1.084       .  S
C629        C630   1.400       .  A
C630        C631   1.414       .  A
C631        C632   1.517       .  S
C632        F636   1.385       .  S
C632        F637   1.382       .  S
C632        F638   1.382       .  S
C635        F639   1.383       .  S
C635        F640   1.382       .  S
C635        F641   1.385       .  S
C642        H649   1.083       .  S
C642        C643   1.408       .  A
C642        C647   1.409       .  A
C643        C644   1.421       .  A
C644        C645   1.405       .  A
C644        C651   1.515       .  S
C645        H650   1.085       .  S
C645        C646   1.399       .  A
C646        C647   1.412       .  A
C647        C648   1.516       .  S
C648        F652   1.384       .  S
C648        F653   1.381       .  S
C648        F654   1.383       .  S
C651        F655   1.383       .  S
C651        F656   1.383       .  S
C651        F657   1.384       .  S
C658        H665   1.083       .  S
C658        C659   1.410       .  A
C658        C663   1.413       .  A
C659        C660   1.429       .  A
C660        C661   1.416       .  A
C660        C667   1.518       .  S
C661        H666   1.083       .  S
C661        C662   1.401       .  A
C662        C663   1.414       .  A
C663        C664   1.517       .  S
C664        F668   1.383       .  S
C664        F669   1.383       .  S
C664        F670   1.384       .  S
C667        F671   1.381       .  S
C667        F672   1.383       .  S
C667        F673   1.385       .  S
C674        H681   1.085       .  S
C674        C675   1.403       .  A
C674        C679   1.407       .  A
C675        C676   1.418       .  A
C676        C677   1.407       .  A
C676        C683   1.516       .  S
C677        H682   1.085       .  S
C677        C678   1.404       .  A
C678        C679   1.422       .  A
C679        C680   1.520       .  S
C680        F684   1.384       .  S
C680        F685   1.381       .  S
C680        F686   1.383       .  S
C683        F687   1.381       .  S
C683        F688   1.382       .  S
C683        F689   1.384       .  S
C690        H697   1.083       .  S
C690        C691   1.402       .  A
C690        C695   1.410       .  A
C691        C692   1.415       .  A
C692        C693   1.414       .  A
C692        C699   1.517       .  S
C693        H698   1.083       .  S
C693        C694   1.408       .  A
C694        C695   1.423       .  A
C695        C696   1.520       .  S
C696        F700   1.385       .  S
C696        F701   1.384       .  S
C696        F702   1.380       .  S
C699        F703   1.382       .  S
C699        F704   1.384       .  S
C699        F705   1.382       .  S
C706        H713   1.083       .  S
C706        C707   1.402       .  A
C706        C711   1.405       .  A
C707        C708   1.415       .  A
C708        C709   1.400       .  A
C708        C715   1.520       .  S
C709        H714   1.084       .  S
C709        C710   1.402       .  A
C710        C711   1.412       .  A
C711        C712   1.514       .  S
C712        F716   1.385       .  S
C712        F717   1.382       .  S
C712        F718   1.383       .  S
C715        F719   1.383       .  S
C715        F720   1.382       .  S
C715        F721   1.385       .  S
C722        H729   1.084       .  S
C722        C723   1.401       .  A
C722        C727   1.408       .  A
C723        C724   1.413       .  A
C724        C725   1.408       .  A
C724        C731   1.517       .  S
C725        H730   1.081       .  S
C725        C726   1.407       .  A
C726        C727   1.419       .  A
C727        C728   1.515       .  S
C728        F732   1.385       .  S
C728        F733   1.382       .  S
C728        F734   1.383       .  S
C731        F735   1.382       .  S
C731        F736   1.383       .  S
C731        F737   1.385       .  S
C738        H745   1.083       .  S
C738        C739   1.405       .  A
C738        C743   1.409       .  A
C739        C740   1.416       .  A
C740        C741   1.402       .  A
C740        C747   1.520       .  S
C741        H746   1.084       .  S
C741        C742   1.402       .  A
C742        C743   1.413       .  A
C743        C744   1.516       .  S
C744        F748   1.384       .  S
C744        F749   1.383       .  S
C744        F750   1.382       .  S
C747        F751   1.381       .  S
C747        F752   1.383       .  S
C747        F753   1.384       .  S
C754        H761   1.084       .  S
C754        C755   1.403       .  A
C754        C759   1.412       .  A
C755        C756   1.415       .  A
C756        C757   1.410       .  A
C756        C763   1.517       .  S
C757        H762   1.082       .  S
C757        C758   1.408       .  A
C758        C759   1.426       .  A
C759        C760   1.518       .  S
C760        F764   1.385       .  S
C760        F765   1.382       .  S
C760        F766   1.383       .  S
C763        F767   1.385       .  S
C763        F768   1.382       .  S
C763        F769   1.382       .  S
C770        H777   1.085       .  S
C770        C771   1.403       .  A
C770        C775   1.404       .  A
C771        C772   1.413       .  A
C772        C773   1.401       .  A
C772        C779   1.519       .  S
C773        H778   1.084       .  S
C773        C774   1.404       .  A
C774        C775   1.415       .  A
C775        C776   1.516       .  S
C776        F780   1.384       .  S
C776        F781   1.382       .  S
C776        F782   1.382       .  S
C779        F783   1.383       .  S
C779        F784   1.385       .  S
C779        F785   1.382       .  S
C786        H793   1.083       .  S
C786        C787   1.405       .  A
C786        C791   1.417       .  A
C787        C788   1.414       .  A
C788        C789   1.413       .  A
C788        C795   1.517       .  S
C789        H794   1.083       .  S
C789        C790   1.409       .  A
C790        C791   1.424       .  A
C791        C792   1.518       .  S
C792        F796   1.385       .  S
C792        F797   1.383       .  S
C792        F798   1.383       .  S
C795        F799   1.383       .  S
C795        F800   1.383       .  S
C795        F801   1.384       .  S
C802        H809   1.084       .  S
C802        C803   1.398       .  A
C802        C807   1.400       .  A
C803        C804   1.412       .  A
C804        C805   1.409       .  A
C804        C811   1.516       .  S
C805        H810   1.083       .  S
C805        C806   1.405       .  A
C806        C807   1.419       .  A
C807        C808   1.522       .  S
C808        F812   1.385       .  S
C808        F813   1.381       .  S
C808        F814   1.382       .  S
C811        F815   1.384       .  S
C811        F816   1.383       .  S
C811        F817   1.384       .  S
C818        H825   1.083       .  S
C818        C819   1.402       .  A
C818        C823   1.410       .  A
C819        C820   1.413       .  A
C820        C821   1.409       .  A
C820        C827   1.517       .  S
C821        H826   1.083       .  S
C821        C822   1.408       .  A
C822        C823   1.421       .  A
C823        C824   1.518       .  S
C824        F828   1.384       .  S
C824        F829   1.383       .  S
C824        F830   1.383       .  S
C827        F831   1.383       .  S
C827        F832   1.383       .  S
C827        F833   1.385       .  S
C834        H841   1.085       .  S
C834        C835   1.401       .  A
C834        C839   1.407       .  A
C835        C836   1.415       .  A
C836        C837   1.410       .  A
C836        C843   1.517       .  S
C837        H842   1.082       .  S
C837        C838   1.406       .  A
C838        C839   1.419       .  A
C839        C840   1.515       .  S
C840        F844   1.384       .  S
C840        F845   1.382       .  S
C840        F846   1.383       .  S
C843        F847   1.383       .  S
C843        F848   1.383       .  S
C843        F849   1.385       .  S
C850        H857   1.083       .  S
C850        C851   1.406       .  A
C850        C855   1.412       .  A
C851        C852   1.421       .  A
C852        C853   1.411       .  A
C852        C859   1.520       .  S
C853        H858   1.083       .  S
C853        C854   1.404       .  A
C854        C855   1.414       .  A
C855        C856   1.516       .  S
C856        F860   1.384       .  S
C856        F861   1.383       .  S
C856        F862   1.383       .  S
C859        F863   1.384       .  S
C859        F864   1.380       .  S
C859        F865   1.385       .  S
C866        H873   1.084       .  S
C866        C867   1.406       .  A
C866        C871   1.407       .  A
C867        C868   1.424       .  A
C868        C869   1.411       .  A
C868        C875   1.520       .  S
C869        H874   1.083       .  S
C869        C870   1.402       .  A
C870        C871   1.416       .  A
C871        C872   1.517       .  S
C872        F876   1.383       .  S
C872        F877   1.382       .  S
C872        F878   1.383       .  S
C875        F879   1.382       .  S
C875        F880   1.384       .  S
C875        F881   1.384       .  S
C882        H889   1.083       .  S
C882        C883   1.407       .  A
C882        C887   1.409       .  A
C883        C884   1.421       .  A
C884        C885   1.404       .  A
C884        C891   1.516       .  S
C885        H890   1.085       .  S
C885        C886   1.398       .  A
C886        C887   1.415       .  A
C887        C888   1.520       .  S
C888        F892   1.385       .  S
C888        F893   1.383       .  S
C888        F894   1.383       .  S
C891        F895   1.382       .  S
C891        F896   1.383       .  S
C891        F897   1.384       .  S
C898        H905   1.084       .  S
C898        C899   1.399       .  A
C898        C903   1.408       .  A
C899        C900   1.413       .  A
C900        C901   1.412       .  A
C900        C907   1.518       .  S
C901        H906   1.081       .  S
C901        C902   1.409       .  A
C902        C903   1.425       .  A
C903        C904   1.517       .  S
C904        F908   1.385       .  S
C904        F909   1.384       .  S
C904        F910   1.381       .  S
C907        F911   1.383       .  S
C907        F912   1.382       .  S
C907        F913   1.384       .  S
C914        H921   1.083       .  S
C914        C915   1.403       .  A
C914        C919   1.415       .  A
C915        C916   1.417       .  A
C916        C917   1.407       .  A
C916        C923   1.516       .  S
C917        H922   1.085       .  S
C917        C918   1.406       .  A
C918        C919   1.427       .  A
C919        C920   1.519       .  S
C920        F924   1.385       .  S
C920        F925   1.381       .  S
C920        F926   1.384       .  S
C923        F927   1.383       .  S
C923        F928   1.383       .  S
C923        F929   1.385       .  S
C930        H937   1.083       .  S
C930        C931   1.402       .  A
C930        C935   1.415       .  A
C931        C932   1.414       .  A
C932        C933   1.412       .  A
C932        C939   1.517       .  S
C933        H938   1.080       .  S
C933        C934   1.409       .  A
C934        C935   1.427       .  A
C935        C936   1.519       .  S
C936        F940   1.385       .  S
C936        F941   1.383       .  S
C936        F942   1.383       .  S
C939        F943   1.383       .  S
C939        F944   1.383       .  S
C939        F945   1.383       .  S
