geometry optimzed in LAMMPS
_audit_creation_date              2020-11-30 
_audit_creation_method            'lammps2cif' 
_symmetry_space_group_name_H-M    'P1' 
_symmetry_Int_Tables_number       1 
_symmetry_cell_setting            triclinic 
loop_ 
_symmetry_equiv_pos_as_xyz 
  x,y,z 
_cell_length_a                    34.92271557795403 
_cell_length_b                    34.69243019220567 
_cell_length_c                    49.318659675556226 
_cell_angle_alpha                 89.88258084894622 
_cell_angle_beta                  88.05518747840713 
_cell_angle_gamma                 118.59397833163746 
loop_ 
_atom_site_label 
_atom_site_type_symbol 
_atom_site_fract_x 
_atom_site_fract_y 
_atom_site_fract_z 
_atom_site_charge 
O1          O  0.15110671  0.64348604  0.18320612    -0.81400
O2          O  0.01552380  0.47263777  0.14075829    -0.81420
O3          O  0.03394889  0.56037374  0.14058787    -0.81430
O4          O  0.07249561  0.51505496  0.22447490    -0.81370
O5          O  0.03855457  0.53101881  0.10370399    -0.81500
O6          O  0.13719025  0.57366331  0.21293165    -0.81410
O7          O  0.02562187  0.46716174  0.18365941    -0.81400
O8          O  0.08308225  0.61746415  0.17426223    -0.81440
C9          C  0.11559780  0.64471798  0.18644382     1.08290
C10         C  0.00393619  0.45160612  0.16243870     1.08180
C11         C  0.01860769  0.54685022  0.11819481     1.08310
C12         C  0.10674519  0.54919203  0.23078366     1.08190
O13         O  0.17928352  0.55025456  0.16498524    -0.81400
O14         O  0.12735393  0.53772085  0.10354591    -0.81480
O15         O  0.15618704  0.65418377  0.13429546    -0.81410
O16         O  0.08048284  0.46675311  0.18270519    -0.81390
O17         O  0.09244343  0.46089107  0.13889983    -0.81440
O18         O  0.18988190  0.61660577  0.13738159    -0.81410
O19         O  0.12915855  0.50338662  0.19297571    -0.81370
O20         O  0.11046846  0.59139671  0.09981500    -0.81440
Co21       Co  0.16054974  0.59218813  0.17254579     1.51530
Co22       Co  0.07300692  0.50434776  0.12369621     1.51690
Co23       Co  0.09518837  0.60246885  0.13808027     1.51570
Co24       Co  0.08200906  0.52505180  0.18806915     1.51470
O25         O  0.10308738  0.55250246  0.15276933    -1.43330
C26         C  0.16625308  0.51760646  0.17999563     1.08220
C27         C  0.12764835  0.56858331  0.08996295     1.08310
C28         C  0.19129981  0.65223696  0.13147860     1.08240
C29         C  0.08267194  0.44383188  0.16295148     1.08220
O30         O  0.11738047  0.59418006  0.46410533    -0.81400
O31         O  0.08309723  0.45618544  0.39805124    -0.81420
O32         O  0.98934538  0.48248422  0.45468826    -0.81430
O33         O  0.16267667  0.53897140  0.42821613    -0.81370
O34         O  0.02171583  0.46519444  0.42294053    -0.81500
O35         O  0.18844027  0.60886468  0.43649525    -0.81410
O36         O  0.13769154  0.50283714  0.42139292    -0.81400
O37         O  0.08304412  0.52197110  0.46630282    -0.81440
C38         C  0.10597072  0.55883359  0.47717387     1.08290
C39         C  0.10820853  0.46325366  0.41763005     1.08180
C40         C  0.98587682  0.45809606  0.43440811     1.08310
C41         C  0.19297771  0.57476298  0.43667909     1.08190
O42         O  0.16206489  0.64142839  0.39052622    -0.81400
O43         O  0.02251761  0.52309637  0.37472550    -0.81480
O44         O  0.04460532  0.57810956  0.45348216    -0.81410
O45         O  0.13685856  0.57029054  0.35864613    -0.81390
O46         O  0.08216824  0.50733700  0.35098244    -0.81440
O47         O  0.08448096  0.62148534  0.41967513    -0.81410
O48         O  0.19814421  0.60486088  0.38791067    -0.81370
O49         O  0.01006725  0.53903311  0.41500836    -0.81440
Co50       Co  0.13476966  0.61282649  0.42607964     1.51530
Co51       Co  0.05476848  0.49276357  0.38791149     1.51690
Co52       Co  0.04679225  0.52615360  0.43766994     1.51570
Co53       Co  0.14376299  0.54496378  0.39159023     1.51470
O54         O  0.09700251  0.55210927  0.40937713    -1.43330
C55         C  0.19775801  0.64122184  0.38535160     1.08220
C56         C  0.00621464  0.54029964  0.39028421     1.08310
C57         C  0.05777462  0.61345937  0.43959730     1.08240
C58         C  0.11081258  0.54459523  0.34266951     1.08220
O59         O  0.83682990  0.52623268  0.05048101    -0.81400
O60         O  0.69045604  0.55226929  0.10256814    -0.81420
O61         O  0.71005142  0.46690629  0.09799594    -0.81430
O62         O  0.74303289  0.57843200  0.02407132    -0.81370
O63         O  0.68943139  0.51672995  0.10509845    -0.81500
O64         O  0.78725486  0.54974776  0.02090340    -0.81410
O65         O  0.70791270  0.60202338  0.07063197    -0.81400
O66         O  0.77377383  0.47712928  0.06661065    -0.81440
C67         C  0.80908684  0.48684327  0.05403328     1.08290
C68         C  0.68154604  0.57865589  0.09001530     1.08180
C69         C  0.68110978  0.47776310  0.09794356     1.08310
C70         C  0.75923447  0.55823643  0.01093499     1.08190
O71         O  0.87074676  0.60441472  0.02870931    -0.81400
O72         O  0.73501654  0.56887250  0.14645904    -0.81480
O73         O  0.83476984  0.53396639  0.10534661    -0.81410
O74         O  0.80603906  0.64935890  0.08425958    -0.81390
O75         O  0.75387055  0.63228051  0.11069463    -0.81440
O76         O  0.86320638  0.59762951  0.08379206    -0.81410
O77         O  0.83409239  0.63866628  0.04185237    -0.81370
O78         O  0.76347053  0.52406181  0.14059662    -0.81440
Co79       Co  0.82258355  0.57469651  0.05317414     1.51530
Co80       Co  0.75141277  0.56991619  0.11125076     1.51690
Co81       Co  0.77082900  0.50602606  0.10058055     1.51570
Co82       Co  0.77049910  0.61113742  0.05629942     1.51470
O83         O  0.76901962  0.55656730  0.07633218    -1.43330
C84         C  0.86973912  0.63969422  0.03324468     1.08220
C85         C  0.74886462  0.54482189  0.15619514     1.08310
C86         C  0.86760589  0.56990068  0.09834478     1.08240
C87         C  0.78335380  0.66241947  0.09598523     1.08220
O88         O  0.80327965  0.49943417  0.30456257    -0.81400
O89         O  0.73011430  0.61415996  0.37360266    -0.81420
O90         O  0.72585866  0.49668561  0.32498357    -0.81430
O91         O  0.73174940  0.54936779  0.28735181    -0.81370
O92         O  0.70764098  0.53293942  0.35365481    -0.81500
O93         O  0.79383665  0.55646249  0.26985908    -0.81410
O94         O  0.70253955  0.59227721  0.33255669    -0.81400
O95         O  0.77873365  0.47099358  0.34619616    -0.81440
C96         C  0.78798762  0.46696103  0.32167156     1.08290
C97         C  0.69915551  0.60337384  0.35805966     1.08180
C98         C  0.69639250  0.50045060  0.33769131     1.08310
C99         C  0.75334238  0.54278663  0.26868726     1.08190
O100        O  0.86429858  0.62730723  0.29438221    -0.81400
O101        O  0.78840285  0.58840448  0.38433414    -0.81480
O102        O  0.83640911  0.55169960  0.36199193    -0.81410
O103        O  0.77953774  0.66570583  0.31589448    -0.81390
O104        O  0.80778364  0.66241356  0.35336209    -0.81440
O105        O  0.87734935  0.57666369  0.32560570    -0.81410
O106        O  0.81172054  0.63746981  0.27815548    -0.81370
O107        O  0.75522844  0.51794045  0.38070901    -0.81440
Co108      Co  0.83151462  0.56651766  0.30053023     1.51530
Co109      Co  0.76266564  0.59770484  0.35275362     1.51690
Co110      Co  0.78181516  0.52586543  0.34246627     1.51570
Co111      Co  0.75821156  0.60654698  0.30467187     1.51470
O112        O  0.79392287  0.58314167  0.32757303    -1.43330
C113        C  0.85164051  0.65221293  0.28490358     1.08220
C114        C  0.76861142  0.55119586  0.39562420     1.08310
C115        C  0.87356892  0.56918885  0.35061742     1.08240
C116        C  0.79947386  0.68462686  0.33622446     1.08220
O117        O  0.08278934  0.76125495  0.01837067    -0.81400
O118        O  0.19228445  0.96029972  0.52087434    -0.81420
O119        O  0.08013857  0.86286915  0.46381380    -0.81430
O120        O  0.19291542  0.89266822  0.03741280    -0.81370
O121        O  0.14759320  0.91588123  0.46909317    -0.81500
O122        O  0.16552165  0.82472861  0.02379124    -0.81410
O123        O  0.17320845  0.95171473  0.06405226    -0.81400
O124        O  0.07812536  0.79274725  0.48107751    -0.81440
C125        C  0.07823572  0.76133561  0.49315861     1.08290
C126        C  0.19824023  0.97537708  0.54557987     1.08180
C127        C  0.11833913  0.88788517  0.45409281     1.08310
C128        C  0.19735161  0.86252569  0.02453070     1.08190
O129        O  0.14481950  0.84586123  0.07545058    -0.81400
O130        O  0.07033162  0.91399184  0.99004106    -0.81480
O131        O  0.02124855  0.78285157  0.02652450    -0.81410
O132        O  0.10507852  0.94296910  0.03980864    -0.81390
O133        O  0.13887810  0.98142748  0.00178013    -0.81440
O134        O  0.05811249  0.79475907  0.06370038    -0.81410
O135        O  0.10698046  0.87837830  0.07405059    -0.81370
O136        O  0.02868683  0.85930352  0.01513309    -0.81440
Co137      Co  0.11283707  0.81111265  0.04322812     1.51530
Co138      Co  0.12809115  0.92385720  0.50609710     1.51690
Co139      Co  0.05485842  0.82690439  0.99812014     1.51570
Co140      Co  0.14046903  0.90771787  0.04115780     1.51470
O141        O  0.10881622  0.85919849  0.01821304    -1.43330
C142        C  0.12610053  0.86374545  0.08813976     1.08220
C143        C  0.03218098  0.88717092  0.99830035     1.08310
C144        C  0.02299710  0.77762305  0.05167249     1.08240
C145        C  0.11997522  0.97907786  0.02485580     1.08220
O146        O  0.13360359  0.81008024  0.25400094    -0.81400
O147        O  0.16768396  0.00220224  0.23697485    -0.81420
O148        O  0.08972716  0.86342057  0.21322305    -0.81430
O149        O  0.21205532  0.90867541  0.26824014    -0.81370
O150        O  0.15652143  0.91831300  0.21626979    -0.81500
O151        O  0.18825721  0.85102853  0.29348535    -0.81410
O152        O  0.19748446  0.96746021  0.25296113    -0.81400
O153        O  0.06826201  0.79158551  0.24168487    -0.81440
C154        C  0.10217351  0.78707395  0.23967553     1.08290
C155        C  0.19808321  0.00360040  0.25091331     1.08180
C156        C  0.12752534  0.88813069  0.20284013     1.08310
C157        C  0.21691723  0.87781980  0.27681504     1.08190
O158        O  0.11379765  0.84656319  0.32554116    -0.81400
O159        O  0.08612397  0.93470605  0.22308468    -0.81480
O160        O  0.03210591  0.82759677  0.28546163    -0.81410
O161        O  0.15501258  0.96924041  0.30555446    -0.81390
O162        O  0.10568671  0.95628997  0.27625550    -0.81440
O163        O  0.05711437  0.78282667  0.29119646    -0.81410
O164        O  0.17601104  0.90717673  0.32376329    -0.81370
O165        O  0.04369631  0.89050366  0.25373486    -0.81440
Co166      Co  0.12297972  0.82846261  0.28935484     1.51530
Co167      Co  0.13295451  0.93787499  0.24740273     1.51690
Co168      Co  0.06281376  0.84630095  0.25042963     1.51570
Co169      Co  0.17984285  0.93339432  0.28694909     1.51470
O170        O  0.12039496  0.88269827  0.27054545    -1.43330
C171        C  0.14359323  0.87847445  0.33739826     1.08220
C172        C  0.04784260  0.91153362  0.23230495     1.08310
C173        C  0.02469161  0.79003064  0.29145262     1.08240
C174        C  0.12486309  0.97588306  0.29706512     1.08220
O175        O  0.52204894  0.21959880  0.09261709    -0.81400
O176        O  0.32847957  0.15802416  0.10544606    -0.81060
O177        O  0.45511268  0.26389156  0.13772353    -0.81430
O178        O  0.40635978  0.14333212  0.07472479    -0.81370
O179        O  0.41071753  0.19293313  0.13301604    -0.81500
O180        O  0.47145396  0.15983128  0.05832127    -0.81410
O181        O  0.37350938  0.14478710  0.07995130    -0.81400
O182        O  0.53118352  0.28145141  0.11123512    -0.81440
C183        C  0.53886862  0.24871845  0.11010982     1.08290
C184        C  0.33398522  0.13330856  0.08818456     1.08180
C185        C  0.43558837  0.22490543  0.14784939     1.08310
C186        C  0.43755084  0.13331669  0.07192392     1.08190
O187        O  0.48034319  0.22849414  0.01973921    -0.81400
O188        O  0.38104934  0.25368072  0.11754224    -0.81480
O189        O  0.49907857  0.31364827  0.06433243    -0.81410
O190        O  0.35735663  0.17191503  0.03369269    -0.81390
O191        O  0.35956777  0.21807627  0.06478238    -0.81440
O192        O  0.54542217  0.29142028  0.05648285    -0.81410
O193        O  0.43146053  0.24832963  0.02952012    -0.81370
O194        O  0.43022838  0.29884376  0.08964915    -0.81440
Co195      Co  0.50069066  0.22570096  0.05809192     1.51530
Co196      Co  0.38853330  0.20460981  0.09807394     1.51690
Co197      Co  0.47784706  0.28769841  0.09967759     1.51570
Co198      Co  0.40902113  0.19802483  0.05504752     1.51470
O199        O  0.45133799  0.23110691  0.08120785    -1.43330
C200        C  0.45294259  0.24020094  0.01149697     1.08220
C201        C  0.40151741  0.29243785  0.10736510     1.08310
C202        C  0.53743480  0.32293784  0.06064781     1.08240
C203        C  0.34127140  0.19509112  0.04360819     1.08220
O204        O  0.54848798  0.25181271  0.31982017    -0.81400
O205        O  0.32746571  0.16097428  0.33595169    -0.81420
O206        O  0.42622386  0.20034894  0.38058099    -0.81430
O207        O  0.40726713  0.15194305  0.33842050    -0.81370
O208        O  0.37361826  0.21445785  0.38574414    -0.81500
O209        O  0.47243081  0.17836676  0.32122022    -0.81410
O210        O  0.35146245  0.13653653  0.30067133    -0.81400
O211        O  0.51054769  0.23192655  0.35970727    -0.81440
C212        C  0.54367240  0.23769371  0.34436906     1.08290
C213        C  0.32086046  0.13335293  0.31634451     1.08180
C214        C  0.40030562  0.20420769  0.39666783     1.08310
C215        C  0.44093130  0.14825742  0.33519939     1.08190
O216        O  0.48789511  0.24602669  0.27816121    -0.81400
O217        O  0.39800638  0.29120602  0.35102807    -0.81480
O218        O  0.51657889  0.31662408  0.35789033    -0.81410
O219        O  0.38233444  0.21639017  0.28168934    -0.81390
O220        O  0.35209060  0.24282349  0.30946166    -0.81440
O221        O  0.52045766  0.31169132  0.31435945    -0.81410
O222        O  0.43231920  0.18051364  0.27991797    -0.81370
O223        O  0.43991215  0.29078046  0.38271001    -0.81440
Co224      Co  0.49183420  0.24571197  0.31854119     1.51530
Co225      Co  0.36983559  0.22804480  0.34455455     1.51690
Co226      Co  0.46903808  0.25726660  0.36673408     1.51570
Co227      Co  0.39721986  0.18732316  0.31131589     1.51470
O228        O  0.43473265  0.24170347  0.32961997    -1.43330
C229        C  0.45934200  0.21370994  0.26575199     1.08220
C230        C  0.42191626  0.30963686  0.37053895     1.08310
C231        C  0.53463033  0.33400909  0.33550264     1.08240
C232        C  0.35728024  0.23244684  0.28560961     1.08220
O233        O  0.38640211  0.81018827  0.15579721    -0.81400
O234        O  0.52893184  0.90276090  0.14731136    -0.81420
O235        O  0.39914262  0.88830090  0.11248867    -0.81430
O236        O  0.46842663  0.84450256  0.20063307    -0.81370
O237        O  0.45004296  0.86900278  0.11913635    -0.81500
O238        O  0.39752360  0.79640015  0.20854754    -0.81410
O239        O  0.49890266  0.87188293  0.18653729    -0.81400
O240        O  0.34400636  0.83961416  0.15244116    -0.81440
C241        C  0.35113537  0.80775830  0.14800501     1.08290
C242        C  0.53018661  0.88316808  0.16902354     1.08180
C243        C  0.42327615  0.87160405  0.10417150     1.08310
C244        C  0.43690768  0.80436218  0.20772225     1.08190
O245        O  0.42624615  0.87947252  0.22464473    -0.81400
O246        O  0.46191467  0.95978731  0.11294736    -0.81480
O247        O  0.36929120  0.91156353  0.18811849    -0.81410
O248        O  0.54086220  0.95972896  0.18315359    -0.81390
O249        O  0.51548223  0.98113917  0.15143458    -0.81440
O250        O  0.35509494  0.84515491  0.20094323    -0.81410
O251        O  0.49741330  0.91679762  0.23142981    -0.81370
O252        O  0.42232076  0.96707194  0.14542278    -0.81440
Co253      Co  0.41170778  0.84764058  0.18789486     1.51530
Co254      Co  0.48613411  0.92513584  0.13423247     1.51690
Co255      Co  0.38701789  0.90281547  0.15081062     1.51570
Co256      Co  0.47666203  0.91262965  0.19661457     1.51470
O257        O  0.44039879  0.90152747  0.16467361    -1.43330
C258        C  0.45821655  0.89517770  0.24065861     1.08220
C259        C  0.44280549  0.98044322  0.12282285     1.08310
C260        C  0.35014641  0.87889443  0.20455859     1.08240
C261        C  0.54810392  0.98534340  0.16259940     1.08220
O262        O  0.38721448  0.81360843  0.41062259    -0.81400
O263        O  0.52703424  0.90844120  0.39749129    -0.81420
O264        O  0.39780398  0.89558333  0.36270955    -0.81430
O265        O  0.47036298  0.85522018  0.45299567    -0.81370
O266        O  0.44850604  0.87599127  0.36879391    -0.81500
O267        O  0.40074079  0.80759479  0.46474541    -0.81410
O268        O  0.50159942  0.88151340  0.43857477    -0.81400
O269        O  0.34357714  0.84066900  0.40153882    -0.81440
C270        C  0.35133252  0.80837611  0.40165760     1.08290
C271        C  0.53068881  0.89105082  0.41951446     1.08180
C272        C  0.42273825  0.88047877  0.35382552     1.08310
C273        C  0.44024141  0.81594995  0.46194949     1.08190
O274        O  0.42365659  0.89198226  0.47568917    -0.81400
O275        O  0.46021689  0.96777851  0.36562940    -0.81480
O276        O  0.36401392  0.91388808  0.43816598    -0.81410
O277        O  0.53800828  0.96639750  0.43588925    -0.81390
O278        O  0.51608917  0.98715966  0.40161071    -0.81440
O279        O  0.35114861  0.84841192  0.45130588    -0.81410
O280        O  0.49397778  0.92584030  0.48347643    -0.81370
O281        O  0.41757775  0.97052833  0.39787318    -0.81440
Co282      Co  0.41072257  0.85516816  0.44113995     1.51530
Co283      Co  0.48460013  0.93129361  0.38504586     1.51690
Co284      Co  0.38405801  0.90602677  0.40132006     1.51570
Co285      Co  0.47474989  0.92007688  0.44798272     1.51470
O286        O  0.43847854  0.90666499  0.41550972    -1.43330
C287        C  0.45457757  0.90343531  0.99220220     1.08220
C288        C  0.44121139  0.98771031  0.37673403     1.08310
C289        C  0.34247885  0.88008530  0.45305812     1.08240
C290        C  0.54679256  0.99168067  0.41521064     1.08220
O291        O  0.77746069  0.30823621  0.08740271    -0.81400
O292        O  0.71202076  0.12444934  0.07510628    -0.81420
O293        O  0.77528260  0.24891772  0.04982966    -0.81430
O294        O  0.68456813  0.18739842  0.14245071    -0.81370
O295        O  0.78330270  0.19006947  0.04686812    -0.81500
O296        O  0.70247094  0.23772269  0.11101664    -0.81410
O297        O  0.68068736  0.14752382  0.10068974    -0.81400
O298        O  0.84331457  0.32281170  0.07044602    -0.81440
C299        C  0.81386848  0.33373942  0.07418980     1.08290
C300        C  0.67861264  0.11527227  0.09021855     1.08180
C301        C  0.77544031  0.21819504  0.03580108     1.08310
C302        C  0.67613306  0.21439224  0.12953529     1.08190
O303        O  0.75222791  0.24069330  0.15951258    -0.81400
O304        O  0.84121537  0.20352250  0.09274222    -0.81480
O305        O  0.85192807  0.27815007  0.11329340    -0.81410
O306        O  0.74861688  0.11401704  0.11301436    -0.81390
O307        O  0.78953568  0.13107931  0.07374959    -0.81440
O308        O  0.81969039  0.30672884  0.13638143    -0.81410
O309        O  0.76417265  0.18328614  0.15722735    -0.81370
O310        O  0.85336494  0.25236018  0.06253510    -0.81440
Co311      Co  0.76231783  0.26826567  0.12180527     1.51530
Co312      Co  0.77683420  0.17130872  0.08522433     1.51690
Co313      Co  0.81117416  0.26455602  0.08305835     1.51570
Co314      Co  0.72413184  0.16206365  0.12714937     1.51470
O315        O  0.76559911  0.21515212  0.10316037    -1.43330
C316        C  0.76207460  0.21348690  0.17077310     1.08220
C317        C  0.86699337  0.23014643  0.07475027     1.08310
C318        C  0.85248844  0.30210918  0.13233591     1.08240
C319        C  0.76861393  0.10396158  0.09240587     1.08220
O320        O  0.76703518  0.30515015  0.34928051    -0.81400
O321        O  0.70355262  0.11978830  0.32189782    -0.81420
O322        O  0.80078281  0.26128227  0.30047284    -0.81430
O323        O  0.68410440  0.17859446  0.39420880    -0.81370
O324        O  0.78270570  0.19097740  0.29568906    -0.81500
O325        O  0.70246849  0.24128241  0.37379581    -0.81410
O326        O  0.68209585  0.15061541  0.34740088    -0.81400
O327        O  0.79109628  0.28747071  0.31289186    -0.81440
C328        C  0.77337273  0.30802849  0.32390251     1.08290
C329        C  0.67201159  0.11570348  0.33735803     1.08180
C330        C  0.79202217  0.22780374  0.28539436     1.08310
C331        C  0.67379628  0.20593719  0.38379209     1.08190
O332        O  0.75618421  0.22972335  0.41141812    -0.81400
O333        O  0.83040396  0.19682969  0.34658319    -0.81480
O334        O  0.86010447  0.32333189  0.34463678    -0.81410
O335        O  0.74115379  0.10670031  0.35685713    -0.81390
O336        O  0.78675240  0.13063854  0.32034220    -0.81440
O337        O  0.82791206  0.28907340  0.38287485    -0.81410
O338        O  0.76324088  0.17069172  0.40449226    -0.81370
O339        O  0.85721380  0.25508826  0.32199617    -0.81440
Co340      Co  0.76312001  0.26148094  0.37701829     1.51530
Co341      Co  0.76944963  0.16770074  0.33327153     1.51690
Co342      Co  0.81242660  0.26399598  0.34143422     1.51570
Co343      Co  0.72200019  0.15616884  0.37455799     1.51470
O344        O  0.75632037  0.21129535  0.34989291    -1.43330
C345        C  0.76505641  0.20076186  0.41995060     1.08220
C346        C  0.86192657  0.22513065  0.33241218     1.08310
C347        C  0.85837263  0.32264329  0.37049057     1.08240
C348        C  0.76266658  0.10006373  0.33587969     1.08220
O349        O  0.10565801  0.30304917  0.47446275    -0.81400
O350        O  0.19946752  0.24570774  0.99797991    -0.81420
O351        O  0.16754471  0.32921339  0.01389716    -0.81430
O352        O  0.08986644  0.16835691  0.45960519    -0.81370
O353        O  0.20921796  0.30557597  0.02814797    -0.81500
O354        O  0.10319898  0.23560801  0.44851020    -0.81410
O355        O  0.16102581  0.18020675  0.48779954    -0.81400
O356        O  0.09167574  0.31875866  0.01501893    -0.81440
C357        C  0.09731211  0.32734513  0.48957094     1.08290
C358        C  0.19843103  0.21072552  0.49275837     1.08180
C359        C  0.20512724  0.33446683  0.01539980     1.08310
C360        C  0.10061839  0.19964931  0.44190640     1.08190
O361        O  0.02378289  0.17530532  0.47749019    -0.81400
O362        O  0.13668658  0.24598086  0.06635714    -0.81480
O363        O  0.05675096  0.23484943  0.04523010    -0.81410
O364        O  0.08827646  0.12067082  0.00882896    -0.81390
O365        O  0.13404687  0.17219211  0.03729182    -0.81440
O366        O  0.02970933  0.24366763  0.00767785    -0.81410
O367        O  0.04178394  0.16030306  0.51528914    -0.81370
O368        O  0.12643274  0.30479379  0.06627902    -0.81440
Co369      Co  0.06925769  0.23977559  0.47848985     1.51530
Co370      Co  0.16424299  0.24193403  0.02997043     1.51690
Co371      Co  0.11477433  0.27954142  0.03065547     1.51570
Co372      Co  0.10195423  0.17751251  0.50064082     1.51470
O373        O  0.11737394  0.24067517  0.00231462    -1.43330
C374        C  0.01250468  0.15119561  0.49858510     1.08220
C375        C  0.13312054  0.27658107  0.07916021     1.08310
C376        C  0.02582714  0.23563171  0.03310406     1.08240
C377        C  0.10958319  0.13104175  0.03051765     1.08220
O378        O  0.03339626  0.25730893  0.22762435    -0.81400
O379        O  0.20466464  0.25781666  0.24829120    -0.81420
O380        O  0.16725944  0.31264242  0.25879362    -0.81430
O381        O  0.11306361  0.19688809  0.20129352    -0.81370
O382        O  0.19960801  0.30353727  0.29142899    -0.81500
O383        O  0.10665777  0.25520913  0.21086560    -0.81410
O384        O  0.17805325  0.19238994  0.23372146    -0.81400
O385        O  0.09580002  0.30728527  0.24302427    -0.81440
C386        C  0.06329400  0.29676050  0.22759384     1.08290
C387        C  0.21171174  0.22931123  0.23778828     1.08180
C388        C  0.19949116  0.32842845  0.27286634     1.08310
C389        C  0.11337362  0.23208404  0.19377334     1.08190
O390        O  0.02415875  0.17674854  0.22452362    -0.81400
O391        O  0.13989082  0.21788440  0.31640030    -0.81480
O392        O  0.05422946  0.26319164  0.29555589    -0.81410
O393        O  0.10244232  0.14198327  0.27353304    -0.81390
O394        O  0.16878278  0.17662085  0.28427151    -0.81440
O395        O  0.01967652  0.20488290  0.27299443    -0.81410
O396        O  0.04735012  0.13643920  0.24300531    -0.81370
O397        O  0.12520282  0.27263178  0.31662597    -0.81440
Co398      Co  0.06580442  0.23142993  0.24321427     1.51530
Co399      Co  0.17137109  0.23775930  0.28259569     1.51690
Co400      Co  0.11131492  0.28258925  0.27719586     1.51570
Co401      Co  0.11097678  0.17258671  0.23907077     1.51470
O402        O  0.11111137  0.22295987  0.26333212    -1.43330
C403        C  0.01604344  0.14035095  0.23480422     1.08220
C404        C  0.12680037  0.24065755  0.32879229     1.08310
C405        C  0.01933315  0.22927834  0.29161093     1.08240
C406        C  0.13333146  0.14072147  0.28406162     1.08220
O407        O  0.87181512  0.90665389  0.47759938    -0.81400
O408        O  0.77202820  0.97555135  0.49285034    -0.81420
O409        O  0.78653870  0.85969182  0.43710382    -0.81430
O410        O  0.81453825  0.96679596  0.02746493    -0.81370
O411        O  0.79570855  0.92908165  0.43892236    -0.81500
O412        O  0.86205399  0.96448700  0.99985669    -0.81410
O413        O  0.72635873  0.94196679  0.52781449    -0.81400
O414        O  0.83590806  0.83718092  0.47093017    -0.81440
C415        C  0.87169646  0.87263114  0.46998497     1.08290
C416        C  0.74941273  0.97721656  0.51493466     1.08180
C417        C  0.79620849  0.89716619  0.42558258     1.08310
C418        C  0.85136772  0.98683198  0.01424279     1.08190
O419        O  0.81600640  0.90556669  0.04878152    -0.81400
O420        O  0.71725718  0.85736961  0.44864708    -0.81480
O421        O  0.76603954  0.80120030  0.51156962    -0.81410
O422        O  0.69282282  0.88504796  0.99154959    -0.81390
O423        O  0.71750337  0.93096979  0.45546438    -0.81440
O424        O  0.83177831  0.84487469  0.02534568    -0.81410
O425        O  0.74404620  0.87779563  0.04396951    -0.81370
O426        O  0.71428686  0.81487591  0.48008989    -0.81440
Co427      Co  0.84253031  0.90521958  0.01177809     1.51530
Co428      Co  0.75457531  0.91373942  0.47101336     1.51690
Co429      Co  0.77524039  0.83086143  0.47549581     1.51570
Co430      Co  0.75544325  0.91511049  0.01123652     1.51470
O431        O  0.78752629  0.88824645  0.49189353    -1.43330
C432        C  0.77675332  0.88757152  0.05864410     1.08220
C433        C  0.69895693  0.81911632  0.45884138     1.08310
C434        C  0.79674910  0.80820476  0.02712823     1.08240
C435        C  0.68524840  0.90489947  0.47073125     1.08220
O436        O  0.87392366  0.91327306  0.21884099    -0.81400
O437        O  0.77684775  0.97140759  0.23705278    -0.81420
O438        O  0.78653532  0.85083795  0.18611697    -0.81430
O439        O  0.81910682  0.96590306  0.27367764    -0.81370
O440        O  0.79671364  0.92002616  0.18700241    -0.81500
O441        O  0.85659465  0.96548656  0.23963334    -0.81410
O442        O  0.73271208  0.94464122  0.27382763    -0.81400
O443        O  0.84713206  0.84343939  0.21734377    -0.81440
C444        C  0.87905353  0.88145376  0.21274608     1.08290
C445        C  0.75688872  0.97742588  0.25892345     1.08180
C446        C  0.79377466  0.88661128  0.17394276     1.08310
C447        C  0.85188962  0.98706305  0.25749653     1.08190
O448        O  0.82585886  0.90899652  0.29435310    -0.81400
O449        O  0.71746872  0.84729117  0.20016435    -0.81480
O450        O  0.78351174  0.80574383  0.26115967    -0.81410
O451        O  0.69589611  0.88147200  0.24000398    -0.81390
O452        O  0.72071115  0.92456704  0.20290569    -0.81440
O453        O  0.85020697  0.85768267  0.26873953    -0.81410
O454        O  0.75307159  0.88269809  0.29417124    -0.81370
O455        O  0.71915923  0.80067591  0.22844878    -0.81440
Co456      Co  0.84906776  0.91130402  0.25477346     1.51530
Co457      Co  0.75675538  0.90705462  0.21908869     1.51690
Co458      Co  0.78336776  0.82779189  0.22422410     1.51570
Co459      Co  0.75946414  0.91383913  0.25904083     1.51470
O460        O  0.78985512  0.88400254  0.24048043    -1.43330
C461        C  0.78819412  0.89344156  0.30698181     1.08220
C462        C  0.70014289  0.80837546  0.20973568     1.08310
C463        C  0.81742491  0.82123363  0.27523068     1.08240
C464        C  0.68807080  0.89850964  0.21775223     1.08220
O465        O  0.33276939  0.48251967  0.16187776    -0.81400
O466        O  0.51447667  0.64950935  0.17977488    -0.81420
O467        O  0.41197553  0.61267082  0.20618374    -0.81430
O468        O  0.46369799  0.58976249  0.12731149    -0.81370
O469        O  0.47293984  0.63278999  0.22682659    -0.81500
O470        O  0.40259073  0.52937475  0.13034864    -0.81410
O471        O  0.54441410  0.62764746  0.14993580    -0.81400
O472        O  0.36114795  0.55137397  0.17234190    -0.81440
C473        C  0.32717567  0.51548928  0.16628559     1.08290
C474        C  0.54689013  0.65861972  0.16490621     1.08180
C475        C  0.44443360  0.64175073  0.21771646     1.08310
C476        C  0.43180707  0.56079461  0.11609487     1.08190
O477        O  0.40384203  0.46379357  0.16538503    -0.81400
O478        O  0.49245084  0.56196359  0.23676301    -0.81480
O479        O  0.34541466  0.52491308  0.22525816    -0.81410
O480        O  0.51744806  0.53578134  0.16873066    -0.81390
O481        O  0.55615441  0.59374996  0.19045458    -0.81440
O482        O  0.37144400  0.48327378  0.20878951    -0.81410
O483        O  0.45474569  0.49883404  0.13390228    -0.81370
O484        O  0.42525760  0.55081281  0.23828800    -0.81440
Co485      Co  0.39344719  0.51377376  0.17100414     1.51530
Co486      Co  0.50484701  0.60466398  0.20678982     1.51690
Co487      Co  0.39945242  0.55128175  0.20316204     1.51570
Co488      Co  0.49155161  0.56304666  0.14720080     1.51470
O489        O  0.45520731  0.56080031  0.18178488    -1.43330
C490        C  0.42737253  0.46276305  0.14597124     1.08220
C491        C  0.45711975  0.55160611  0.25007067     1.08310
C492        C  0.34262559  0.48694187  0.22394107     1.08240
C493        C  0.55452388  0.56477544  0.17366642     1.08220
O494        O  0.37440398  0.57007074  0.42023340    -0.81400
O495        O  0.53113641  0.66002702  0.43180657    -0.81420
O496        O  0.43673921  0.63158491  0.44264071    -0.81430
O497        O  0.47015118  0.59661654  0.37603632    -0.81370
O498        O  0.48213719  0.64869762  0.47444024    -0.81500
O499        O  0.40667232  0.53616456  0.38047290    -0.81410
O500        O  0.55340294  0.63166936  0.40028949    -0.81400
O501        O  0.35993499  0.56651893  0.46400437    -0.81440
C502        C  0.35262576  0.57456715  0.44054183     1.08290
C503        C  0.55980304  0.66423123  0.41482271     1.08180
C504        C  0.46029025  0.65941394  0.45910287     1.08310
C505        C  0.43663028  0.56698703  0.36547287     1.08190
O506        O  0.42178024  0.48354678  0.42244795    -0.81400
O507        O  0.48558828  0.56736427  0.48834166    -0.81480
O508        O  0.38001523  0.50162534  0.46132777    -0.81410
O509        O  0.51992210  0.54101636  0.41982209    -0.81390
O510        O  0.55542816  0.59313714  0.44753296    -0.81440
O511        O  0.34311686  0.48173437  0.42420455    -0.81410
O512        O  0.45955133  0.50990176  0.38494082    -0.81370
O513        O  0.42726338  0.57543585  0.98928326    -0.81440
Co514      Co  0.40271789  0.52947631  0.42203972     1.51530
Co515      Co  0.51025075  0.61304977  0.45913789     1.51690
Co516      Co  0.41186025  0.56777775  0.45104662     1.51570
Co517      Co  0.49838573  0.57111868  0.39733639     1.51470
O518        O  0.46481628  0.57318293  0.43176951    -1.43330
C519        C  0.43778374  0.47761836  0.40070733     1.08220
C520        C  0.45151584  0.56351699  0.00082073     1.08310
C521        C  0.34525450  0.47444584  0.44936992     1.08240
C522        C  0.55446805  0.56482778  0.43063247     1.08220
C523        C  0.45201904  0.54709364  0.28029612    -0.07390
C524        C  0.41061168  0.53729460  0.29195401    -0.18510
C525        C  0.40435176  0.54409989  0.31927389     0.09810
C526        C  0.44020348  0.56095298  0.33600546    -0.07310
C527        C  0.48116782  0.56842493  0.32499650    -0.18550
C528        C  0.48729008  0.56103662  0.29765502     0.09840
S529        S  0.35050697  0.53309360  0.33102105    -0.33510
S530        S  0.54083330  0.57078703  0.28639920    -0.33520
H531        H  0.52494617  0.53271745  0.27072898     0.27850
H532        H  0.36465286  0.56676961  0.35010402     0.27850
H533        H  0.38309109  0.52725414  0.27923953     0.18440
H534        H  0.50874620  0.57937462  0.33798812     0.18450
C535        C  0.44310003  0.55276574  0.02998525    -0.07390
C536        C  0.47907463  0.56324258  0.04565356    -0.18510
C537        C  0.47601926  0.56571322  0.07370732     0.09810
C538        C  0.43553832  0.55699815  0.08658597    -0.07310
C539        C  0.39846069  0.54224732  0.07123262    -0.18550
C540        C  0.40166586  0.54007539  0.04296266     0.09840
S541        S  0.52459233  0.57991846  0.09233364    -0.33510
S542        S  0.35256861  0.52107052  0.02403294    -0.33520
H543        H  0.32390378  0.51654875  0.04602870     0.27850
H544        H  0.55293732  0.58393539  0.07026690     0.27850
H545        H  0.51041926  0.57219030  0.03573434     0.18440
H546        H  0.36735079  0.53363453  0.08137833     0.18450
C547        C  0.66033039  0.77131878  0.19771320    -0.07390
C548        C  0.65431542  0.76944244  0.16937350    -0.18510
C549        C  0.61945855  0.73273671  0.15726670     0.09810
C550        C  0.58898381  0.69688793  0.17375179    -0.07310
C551        C  0.59522607  0.69948458  0.20198323    -0.18550
C552        C  0.62949352  0.73560831  0.21394766     0.09840
S553        S  0.61496257  0.73471554  0.12109352    -0.33510
S554        S  0.63035722  0.73481164  0.25049073    -0.33520
H555        H  0.64362961  0.77980615  0.25312557     0.27850
H556        H  0.59296782  0.68915106  0.11752215     0.27850
H557        H  0.67745660  0.79639419  0.15643698     0.18440
H558        H  0.57216817  0.67307764  0.21529901     0.18450
C559        C  0.78758417  0.89229283  0.33747424    -0.07390
C560        C  0.80982185  0.87332824  0.35062954    -0.18510
C561        C  0.81486471  0.87570733  0.37892995     0.09810
C562        C  0.79916682  0.89952627  0.39502284    -0.07310
C563        C  0.77813552  0.91967629  0.38166020    -0.18550
C564        C  0.77140291  0.91552205  0.35356744     0.09840
S565        S  0.84225493  0.84797287  0.39300290    -0.33510
S566        S  0.74288702  0.94178533  0.33936625    -0.33520
H567        H  0.71084176  0.90296086  0.32813483     0.27850
H568        H  0.86236893  0.87898448  0.41316963     0.27850
H569        H  0.82376163  0.85664659  0.33871476     0.18440
H570        H  0.76469644  0.93706509  0.39341612     0.18450
C571        C  0.77162695  0.88351011  0.08831074    -0.07390
C572        C  0.76850633  0.84627826  0.10108451    -0.18510
C573        C  0.77634854  0.84619820  0.12870131     0.09810
C574        C  0.78942597  0.88528467  0.14396437    -0.07310
C575        C  0.79045598  0.92178869  0.13097600    -0.18550
C576        C  0.78033354  0.92055395  0.10372832     0.09840
S577        S  0.76693720  0.79427222  0.14271005    -0.33510
S578        S  0.77603135  0.96538991  0.08896334    -0.33520
H579        H  0.78607940  0.99164672  0.11208099     0.27850
H580        H  0.80902266  0.81207452  0.15298293     0.27850
H581        H  0.76058094  0.81729956  0.08931857     0.18440
H582        H  0.79773583  0.95096172  0.14236924     0.18450
C583        C  0.66527284  0.77918462  0.44536867    -0.07390
C584        C  0.65088594  0.78171825  0.41930191    -0.18510
C585        C  0.61932226  0.74373963  0.40651628     0.09810
C586        C  0.60324988  0.70208915  0.41936309    -0.07310
C587        C  0.61942901  0.69996438  0.44455951    -0.18550
C588        C  0.64837308  0.73705545  0.45796454     0.09840
S589        S  0.59904053  0.75060600  0.37478944    -0.33510
S590        S  0.65792979  0.72702280  0.49240264    -0.33520
H591        H  0.64536414  0.75689296  0.50341107     0.27850
H592        H  0.58103454  0.70650149  0.36713659     0.27850
H593        H  0.66321339  0.81342662  0.40920187     0.18440
H594        H  0.60521700  0.66923559  0.45584672     0.18450
C595        C  0.30648479  0.44711776  0.23780012    -0.07390
C596        C  0.29735640  0.44528257  0.26607015    -0.18510
C597        C  0.26401264  0.40675335  0.27907583     0.09810
C598        C  0.23682106  0.37074353  0.26315854    -0.07310
C599        C  0.24338826  0.37491852  0.23492265    -0.18550
C600        C  0.27950962  0.40992445  0.22261221     0.09840
S601        S  0.25690259  0.40640797  0.31542456    -0.33510
S602        S  0.29042075  0.40114824  0.18805317    -0.33520
H603        H  0.33074409  0.40387736  0.19381898     0.27850
H604        H  0.21212866  0.37607095  0.31667449     0.27850
H605        H  0.31643050  0.47330422  0.27824563     0.18440
H606        H  0.22277102  0.34779009  0.22225904     0.18450
C607        C  0.88730268  0.03298170  0.25887868    -0.07390
C608        C  0.89160322  0.06175887  0.23727308    -0.18510
C609        C  0.93258388  0.09655256  0.22841523     0.09810
C610        C  0.97080503  0.10344241  0.24139202    -0.07310
C611        C  0.96589131  0.07516936  0.26349892    -0.18550
C612        C  0.92514089  0.04098920  0.27241783     0.09840
S613        S  0.93438141  0.12810207  0.19899360    -0.33510
S614        S  0.92358521  0.00673655  0.30040121    -0.33520
H615        H  0.88103048  0.99606499  0.30962121     0.27850
H616        H  0.97020138  0.12586633  0.18673069     0.27850
H617        H  0.86328997  0.05464864  0.22561458     0.18440
H618        H  0.99397361  0.08049578  0.27479224     0.18450
C619        C  0.24228723  0.37163645  0.99999968    -0.07390
C620        C  0.23219533  0.38926175  0.47724401    -0.18510
C621        C  0.26464151  0.42170523  0.46022084     0.09810
C622        C  0.30923177  0.43713347  0.46525787    -0.07310
C623        C  0.31952491  0.41949081  0.48793423    -0.18550
C624        C  0.28689081  0.38740592  0.00530107     0.09840
S625        S  0.24655178  0.44363508  0.43337866    -0.33510
S626        S  0.30447312  0.36922838  0.03428472    -0.33520
H627        H  0.27200646  0.36877989  0.05217413     0.27850
H628        H  0.27394234  0.48738787  0.44033889     0.27850
H629        H  0.19839953  0.37762357  0.47248559     0.18440
H630        H  0.35343589  0.43144309  0.49253535     0.18450
C631        C  0.10768349  0.19696918  0.41250102    -0.07390
C632        C  0.07145787  0.18577611  0.39645503    -0.18510
C633        C  0.07637051  0.20127252  0.36949425     0.09810
C634        C  0.11835583  0.23050049  0.35829231    -0.07310
C635        C  0.15461403  0.23953288  0.37378924    -0.18550
C636        C  0.14982965  0.22352054  0.40051940     0.09840
S637        S  0.02769032  0.18256179  0.35062223    -0.33510
S638        S  0.19912017  0.23878643  0.41842587    -0.33520
H639        H  0.18365150  0.24490350  0.44375302     0.27850
H640        H  0.04653142  0.17878199  0.32581778     0.27850
H641        H  0.03885566  0.16678259  0.40549541     0.18440
H642        H  0.18720294  0.25913620  0.36485175     0.18450
C643        C  0.13282010  0.27436965  0.10922056    -0.07390
C644        C  0.09512194  0.26749699  0.12395012    -0.18510
C645        C  0.08775619  0.25243530  0.15101932     0.09810
C646        C  0.11957542  0.24598306  0.16456233    -0.07310
C647        C  0.15811630  0.25448178  0.15006851    -0.18550
C648        C  0.16501306  0.26850888  0.12269500     0.09840
S649        S  0.03458422  0.23650462  0.16593900    -0.33510
S650        S  0.21549257  0.27797174  0.10582665    -0.33520
H651        H  0.21724199  0.30918827  0.08689409     0.27850
H652        H  0.02944672  0.19585711  0.17484732     0.27850
H653        H  0.06950774  0.27013564  0.11364918     0.18440
H654        H  0.18300477  0.25021733  0.16010570     0.18450
C655        C  0.88461922  0.03461042  0.01481146    -0.07390
C656        C  0.89367704  0.05869818  0.49021344    -0.18510
C657        C  0.93401408  0.09662545  0.48439060     0.09810
C658        C  0.96702642  0.11266779  0.50381740    -0.07310
C659        C  0.95669380  0.08991084  0.02908292    -0.18550
C660        C  0.91662390  0.05145008  0.03464578     0.09840
S661        S  0.94222095  0.12030197  0.45079638    -0.33510
S662        S  0.91005116  0.02313245  0.06653712    -0.33520
H663        H  0.86435997  0.00136935  0.06742284     0.27850
H664        H  0.97931627  0.11533152  0.44484899     0.27850
H665        H  0.87036382  0.04558621  0.47430657     0.18440
H666        H  0.98078182  0.10124499  0.04450061     0.18450
C667        C  0.75419761  0.05894179  0.32187475    -0.07390
C668        C  0.72771061  0.05000941  0.29896671    -0.18510
C669        C  0.73240992  0.02950597  0.27550999     0.09810
C670        C  0.76665164  0.01930514  0.27266368    -0.07310
C671        C  0.79610837  0.03237796  0.29417415    -0.18550
C672        C  0.78943042  0.04998780  0.31852870     0.09840
S673        S  0.69267956  0.01610080  0.24975338    -0.33510
S674        S  0.82978610  0.06449201  0.34395178    -0.33520
H675        H  0.80349197  0.06702988  0.36537921     0.27850
H676        H  0.71795359  0.01093069  0.22869314     0.27850
H677        H  0.70490117  0.06242862  0.29785414     0.18440
H678        H  0.82389677  0.02716368  0.29336920     0.18450
C679        C  0.90262730  0.22305644  0.32770191    -0.07390
C680        C  0.90043861  0.18525430  0.31631931    -0.18510
C681        C  0.93807818  0.18458918  0.30639219     0.09810
C682        C  0.97909100  0.22286879  0.30704189    -0.07310
C683        C  0.98118308  0.25956393  0.32060592    -0.18550
C684        C  0.94368767  0.25988675  0.33101010     0.09840
S685        S  0.93072859  0.13366660  0.29361846    -0.33510
S686        S  0.95021292  0.30837010  0.34809304    -0.33520
H687        H  0.91535811  0.28520838  0.36697576     0.27850
H688        H  0.97018171  0.13845213  0.30318408     0.27850
H689        H  0.86903554  0.15649479  0.31413702     0.18440
H690        H  0.01209561  0.28919284  0.32230908     0.18450
C691        C  0.76148316  0.06021740  0.08292918    -0.07390
C692        C  0.72093297  0.03369152  0.07153015    -0.18510
C693        C  0.71728344  0.01201706  0.04666563     0.09810
C694        C  0.75466382  0.01572669  0.03172442    -0.07310
C695        C  0.79491367  0.04188693  0.04330064    -0.18550
C696        C  0.79825667  0.06066752  0.06910432     0.09840
S697        S  0.66332467  0.97794639  0.53488893    -0.33510
S698        S  0.85171040  0.08891622  0.08280638    -0.33520
H699        H  0.83701532  0.09311273  0.10900280     0.27850
H700        H  0.66481427  0.01278525  0.51942233     0.27850
H701        H  0.69199614  0.03235683  0.08091549     0.18440
H702        H  0.82392245  0.04505320  0.03338344     0.18450
C703        C  0.91125392  0.23565618  0.06782500    -0.07390
C704        C  0.92334363  0.20509044  0.07777999    -0.18510
C705        C  0.96206505  0.20546048  0.06843948     0.09810
C706        C  0.98858214  0.23612376  0.04804999    -0.07310
C707        C  0.97839962  0.26876180  0.03992538    -0.18550
C708        C  0.94104999  0.26977951  0.04992096     0.09840
S709        S  0.97453396  0.16483631  0.08204669    -0.33510
S710        S  0.93326925  0.31568320  0.03959942    -0.33520
H711        H  0.97260147  0.33936413  0.02428837     0.27850
H712        H  0.01763968  0.19533482  0.08788728     0.27850
H713        H  0.90224001  0.18041912  0.09262663     0.18440
H714        H  0.99996678  0.29365713  0.02527088     0.18450
C715        C  0.77106710  0.21504490  0.50606957    -0.07390
C716        C  0.75026339  0.17260813  0.49508548    -0.18510
C717        C  0.75002630  0.16609892  0.46705110     0.09810
C718        C  0.77244747  0.20259747  0.44932230    -0.07310
C719        C  0.79420482  0.24487290  0.46040269    -0.18550
C720        C  0.79352167  0.25150300  0.48829353     0.09840
S721        S  0.71856417  0.11102008  0.45520616    -0.33510
S722        S  0.82285611  0.30707592  0.49974454    -0.33520
H723        H  0.84550645  0.29704828  0.01906715     0.27850
H724        H  0.69616842  0.12210302  0.43614119     0.27850
H725        H  0.73349812  0.14413831  0.00853680     0.18440
H726        H  0.81097281  0.27341777  0.44700049     0.18450
C727        C  0.76865263  0.21647245  0.20045970    -0.07390
C728        C  0.79839012  0.20454579  0.21104132    -0.18510
C729        C  0.80944823  0.21144741  0.23829246     0.09810
C730        C  0.79010712  0.23024575  0.25569354    -0.07310
C731        C  0.76090877  0.24271886  0.24518469    -0.18550
C732        C  0.74919760  0.23517012  0.21809386     0.09840
S733        S  0.84896691  0.19611890  0.24967237    -0.33510
S734        S  0.70669943  0.24707202  0.20810506    -0.33520
H735        H  0.68424303  0.20771055  0.19402976     0.27850
H736        H  0.86615327  0.22861570  0.26942662     0.27850
H737        H  0.81415744  0.19098019  0.19783082     0.18440
H738        H  0.74471493  0.25555645  0.25864693     0.18450
C739        C  0.63909595  0.07713183  0.35592385    -0.07390
C740        C  0.61826478  0.08978830  0.37651978    -0.18510
C741        C  0.59862148  0.06591036  0.40032780     0.09810
C742        C  0.59039528  0.02259595  0.40289435    -0.07310
C743        C  0.60778988  0.00695219  0.38187353    -0.18550
C744        C  0.63177816  0.03329760  0.35866195     0.09840
S745        S  0.57873117  0.09048188  0.42548351    -0.33510
S746        S  0.64115256  0.00588061  0.33068655    -0.33520
H747        H  0.63726641  0.96939316  0.34550578     0.27850
H748        H  0.57600746  0.06239373  0.44697435     0.27850
H749        H  0.61759473  0.12014701  0.37452715     0.18440
H750        H  0.59848126  0.97242709  0.38206515     0.18450
C751        C  0.64189485  0.89806514  0.46120081    -0.07390
C752        C  0.61078411  0.85752063  0.45100180    -0.18510
C753        C  0.57698641  0.85434114  0.43421035     0.09810
C754        C  0.57267614  0.89200695  0.42769949    -0.07310
C755        C  0.60497790  0.93224601  0.43708847    -0.18550
C756        C  0.63876984  0.93581197  0.45333126     0.09840
S757        S  0.54531616  0.80295798  0.41813335    -0.33510
S758        S  0.67894794  0.99003907  0.46335867    -0.33520
H759        H  0.66550184  0.01412412  0.44689389     0.27850
H760        H  0.52656214  0.81852850  0.39914292     0.27850
H761        H  0.61454143  0.82871357  0.45448507     0.18440
H762        H  0.60353572  0.96165820  0.43228567     0.18450
C763        C  0.45033237  0.77901443  0.46241164    -0.07390
C764        C  0.44558864  0.75695582  0.43808407    -0.18510
C765        C  0.45092557  0.71965956  0.43628195     0.09810
C766        C  0.46116552  0.70288755  0.45963636    -0.07310
C767        C  0.46759525  0.72600887  0.48400034    -0.18550
C768        C  0.46249664  0.76399222  0.48554214     0.09840
S769        S  0.44590598  0.69656746  0.40296670    -0.33510
S770        S  0.47089927  0.79129143  0.01746562    -0.33520
H771        H  0.48706924  0.83347152  0.00583120     0.27850
H772        H  0.48183916  0.68902431  0.40515927     0.27850
H773        H  0.43800407  0.76932333  0.41996438     0.18440
H774        H  0.47533886  0.71378223  0.00208402     0.18450
C775        C  0.65328304  0.07346809  0.10732492    -0.07390
C776        C  0.65879489  0.07570048  0.13597805    -0.18510
C777        C  0.62813249  0.04472348  0.15480090     0.09810
C778        C  0.58976202  0.00990323  0.14550256    -0.07310
C779        C  0.58611375  0.00519249  0.11688009    -0.18550
C780        C  0.61685609  0.03608047  0.09799372     0.09840
S781        S  0.63728631  0.05457079  0.19040960    -0.33510
S782        S  0.60519520  0.02801861  0.06251400    -0.33520
H783        H  0.64700925  0.05804665  0.05217659     0.27850
H784        H  0.61764935  0.00990581  0.19802008     0.27850
H785        H  0.68589859  0.10324120  0.14458014     0.18440
H786        H  0.55681055  0.97878600  0.10902123     0.18450
C787        C  0.64473814  0.88665219  0.20511459    -0.07390
C788        C  0.64641219  0.90074197  0.17763772    -0.18510
C789        C  0.60983771  0.89759986  0.16442338     0.09810
C790        C  0.56881431  0.87824162  0.17821168    -0.07310
C791        C  0.56628744  0.86008018  0.20467569    -0.18550
C792        C  0.60328217  0.86475447  0.21822385     0.09840
S793        S  0.61682878  0.91976531  0.13029758    -0.33510
S794        S  0.59558612  0.84415038  0.25256756    -0.33520
H795        H  0.62976188  0.88301233  0.26240542     0.27850
H796        H  0.66259600  0.93908975  0.12797397     0.27850
H797        H  0.67723662  0.91579302  0.16621765     0.18440
H798        H  0.53549422  0.84427081  0.21605913     0.18450
C799        C  0.44827225  0.88873609  0.26967556    -0.07390
C800        C  0.48183794  0.91419850  0.28669727    -0.18510
C801        C  0.47477852  0.91032188  0.31447014     0.09810
C802        C  0.43226567  0.88202471  0.32527446    -0.07310
C803        C  0.39875121  0.85602182  0.30865692    -0.18550
C804        C  0.40670230  0.85730362  0.28085838     0.09840
S805        S  0.52088983  0.94188335  0.33524363    -0.33510
S806        S  0.36463287  0.81560940  0.26122912    -0.33520
H807        H  0.33215432  0.79638870  0.28203821     0.27850
H808        H  0.54755316  0.97259048  0.31504194     0.27850
H809        H  0.51397285  0.93685603  0.27827945     0.18440
H810        H  0.36698512  0.83360163  0.31771736     0.18450
C811        C  0.44422482  0.88946299  0.02061209    -0.07390
C812        C  0.47954311  0.89882840  0.03675672    -0.18510
C813        C  0.47308103  0.88658593  0.06383786     0.09810
C814        C  0.43017904  0.86843227  0.07554092    -0.07310
C815        C  0.39466703  0.85574752  0.05936256    -0.18550
C816        C  0.40095858  0.86385302  0.03164653     0.09840
S817        S  0.52064131  0.89677171  0.08263955    -0.33510
S818        S  0.35300144  0.83971094  0.01184520    -0.33520
H819        H  0.32251442  0.81387644  0.03245263     0.27850
H820        H  0.55170316  0.91138785  0.06087194     0.27850
H821        H  0.51252403  0.91550858  0.02810968     0.18440
H822        H  0.36206816  0.84040728  0.06870466     0.18450
C823        C  0.44581543  0.76674217  0.21209825    -0.07390
C824        C  0.42806508  0.74010739  0.23568174    -0.18510
C825        C  0.42963783  0.70049982  0.23917665     0.09810
C826        C  0.44975556  0.68693790  0.21879628    -0.07310
C827        C  0.46853580  0.71407933  0.19569164    -0.18550
C828        C  0.46591450  0.75280879  0.19176159     0.09840
S829        S  0.40298988  0.66741526  0.26919460    -0.33510
S830        S  0.48387136  0.77886486  0.15872090    -0.33520
H831        H  0.45311107  0.79376811  0.15709789     0.27850
H832        H  0.42677499  0.64424492  0.26933151     0.27850
H833        H  0.41150472  0.74950934  0.25114909     0.18440
H834        H  0.48241356  0.70322355  0.17939227     0.18450
C835        C  0.33107779  0.23691711  0.26347381    -0.07390
C836        C  0.32490369  0.27365638  0.26400222    -0.18510
C837        C  0.29159169  0.27489413  0.24982784     0.09810
C838        C  0.25820140  0.23638580  0.23836994    -0.07310
C839        C  0.26836955  0.20233748  0.23380292    -0.18550
C840        C  0.30562977  0.20313965  0.24510959     0.09840
S841        S  0.29719391  0.32802670  0.24455056    -0.33510
S842        S  0.32001264  0.16242287  0.23353158    -0.33520
H843        H  0.32851312  0.15187726  0.25892963     0.27850
H844        H  0.27585128  0.31693233  0.21981108     0.27850
H845        H  0.34662384  0.30201101  0.27540532     0.18440
H846        H  0.24707908  0.17496659  0.22171395     0.18450
C847        C  0.43154292  0.43396770  0.39341706    -0.07390
C848        C  0.44257881  0.41068869  0.41198031    -0.18510
C849        C  0.44116362  0.37092610  0.40506537     0.09810
C850        C  0.42694782  0.35287485  0.37923503    -0.07310
C851        C  0.41615947  0.37674496  0.36071289    -0.18550
C852        C  0.41823079  0.41670605  0.36747476     0.09840
S853        S  0.45657318  0.34453583  0.43044026    -0.33510
S854        S  0.40207797  0.44330618  0.34233895    -0.33520
H855        H  0.37983821  0.45673941  0.36109433     0.27850
H856        H  0.41328176  0.31094645  0.43289370     0.27850
H857        H  0.45348875  0.42417379  0.43179212     0.18440
H858        H  0.40566936  0.36413535  0.34068216     0.18450
C859        C  0.44204626  0.10789457  0.34621150    -0.07390
C860        C  0.46751606  0.09171474  0.33261863    -0.18510
C861        C  0.46790346  0.05287370  0.34134178     0.09810
C862        C  0.44345954  0.02945444  0.36508463    -0.07310
C863        C  0.41886604  0.04636866  0.37880726    -0.18550
C864        C  0.41702248  0.08377306  0.36965864     0.09840
S865        S  0.49955183  0.03478262  0.32083857    -0.33510
S866        S  0.38311188  0.09897434  0.39041118    -0.33520
H867        H  0.35707109  0.09887111  0.36958261     0.27850
H868        H  0.46379577  0.99298588  0.31701429     0.27850
H869        H  0.48603455  0.10847670  0.31430688     0.18440
H870        H  0.39977769  0.02978610  0.39703518     0.18450
C871        C  0.57241645  0.22258458  0.35565565    -0.07390
C872        C  0.58231281  0.23024690  0.38322368    -0.18510
C873        C  0.61045764  0.21759322  0.39506357     0.09810
C874        C  0.62919310  0.19705919  0.37908311    -0.07310
C875        C  0.61590691  0.18619128  0.35221598    -0.18550
C876        C  0.58742881  0.19811160  0.34045989     0.09840
S877        S  0.62522945  0.23275571  0.42959201    -0.33510
S878        S  0.57289751  0.18383527  0.30566209    -0.33520
H879        H  0.58687396  0.15199997  0.30363498     0.27850
H880        H  0.64052893  0.20249084  0.43402521     0.27850
H881        H  0.56945851  0.24779915  0.39533210     0.18440
H882        H  0.63121266  0.17264233  0.33901254     0.18450
C883        C  0.23433125  0.20353844  0.00390760    -0.07390
C884        C  0.24752419  0.22031548  0.02997685    -0.18510
C885        C  0.28049075  0.21685049  0.04337363     0.09810
C886        C  0.30352634  0.19717079  0.03054094    -0.07310
C887        C  0.29018303  0.17969794  0.00444072    -0.18550
C888        C  0.25611450  0.18255048  0.99106789     0.09840
S889        S  0.28970652  0.23698424  0.07744783    -0.33510
S890        S  0.24445645  0.16098398  0.45733845    -0.33520
H891        H  0.20609271  0.16359170  0.45404308     0.27850
H892        H  0.28469087  0.19726973  0.08831512     0.27850
H893        H  0.23092459  0.23569205  0.04067106     0.18440
H894        H  0.30697468  0.16429536  0.99404204     0.18450
C895        C  0.41962360  0.41823670  0.13647473    -0.07390
C896        C  0.41948643  0.41024432  0.10859156    -0.18510
C897        C  0.40866172  0.36821102  0.09874323     0.09810
C898        C  0.39858086  0.33228345  0.11693064    -0.07310
C899        C  0.39752237  0.33990875  0.14483252    -0.18550
C900        C  0.40808441  0.38199166  0.15470716     0.09840
S901        S  0.40849299  0.36277000  0.06234512    -0.33510
S902        S  0.40943356  0.38773763  0.19104149    -0.33520
H903        H  0.44584374  0.42999254  0.19047221     0.27850
H904        H  0.37718386  0.31806759  0.06252531     0.27850
H905        H  0.42693563  0.43680932  0.09421906     0.18440
H906        H  0.39149931  0.31371853  0.15917374     0.18450
C907        C  0.43508542  0.09126422  0.08379894    -0.07390
C908        C  0.46694273  0.07939155  0.07491253    -0.18510
C909        C  0.46931334  0.04291503  0.08597378     0.09810
C910        C  0.44069255  0.01761973  0.10776919    -0.07310
C911        C  0.40811165  0.02836897  0.11603672    -0.18550
C912        C  0.40454693  0.06360851  0.10446682     0.09840
S913        S  0.50991395  0.03079631  0.07136022    -0.33510
S914        S  0.36001225  0.07011078  0.11824776    -0.33520
H915        H  0.38666043  0.11454797  0.12310442     0.27850
H916        H  0.47926875  0.98775059  0.06463431     0.27850
H917        H  0.49044237  0.09859950  0.05887843     0.18440
H918        H  0.38469759  0.00896808  0.13208083     0.18450
C919        C  0.41071159  0.20960084  0.42686625    -0.07390
C920        C  0.39160954  0.22811981  0.44457759    -0.18510
C921        C  0.40672903  0.24188803  0.47121064     0.09810
C922        C  0.44002905  0.23427568  0.48184260    -0.07310
C923        C  0.45815693  0.21476472  0.46440185    -0.18550
C924        C  0.44501215  0.20325483  0.43751364     0.09840
S925        S  0.38576075  0.27267153  0.49023578    -0.33510
S926        S  0.47334532  0.17998606  0.41779305    -0.33520
H927        H  0.50906999  0.19230009  0.43450235     0.27850
H928        H  0.35287469  0.26709286  0.97248754     0.27850
H929        H  0.36624254  0.23416042  0.43694562     0.18440
H930        H  0.48295193  0.20784355  0.47203524     0.18450
C931        C  0.44138897  0.21946988  0.17792226    -0.07390
C932        C  0.45414278  0.25654584  0.19438916    -0.18510
C933        C  0.46085589  0.25567756  0.22234611     0.09810
C934        C  0.45464819  0.21645196  0.23544173    -0.07310
C935        C  0.44167706  0.17912005  0.21923049    -0.18550
C936        C  0.43648012  0.18054438  0.19086106     0.09840
S937        S  0.47612623  0.30620316  0.23999445    -0.33510
S938        S  0.42732320  0.13257168  0.17238016    -0.33520
H939        H  0.45428996  0.15614422  0.14986234     0.27850
H940        H  0.44820949  0.28668075  0.26281873     0.27850
H941        H  0.45852178  0.28702908  0.18546684     0.18440
H942        H  0.43708394  0.14882784  0.22856508     0.18450
C943        C  0.57091900  0.24380261  0.12704617    -0.07390
C944        C  0.56170008  0.20047878  0.13393812    -0.18510
C945        C  0.59513358  0.18966170  0.13791227     0.09810
C946        C  0.63892004  0.22298339  0.13601203    -0.07310
C947        C  0.64740132  0.26703132  0.13386402    -0.18550
C948        C  0.61416940  0.27770227  0.12900153     0.09840
S949        S  0.58029061  0.13253787  0.14158418    -0.33510
S950        S  0.62988945  0.33419807  0.12141029    -0.33520
H951        H  0.61550473  0.32539233  0.09473607     0.27850
H952        H  0.60485547  0.13296348  0.11835116     0.27850
H953        H  0.52855656  0.17394064  0.13290041     0.18440
H954        H  0.68090017  0.29325024  0.13306715     0.18450
C955        C  0.25631498  0.87580416  0.26573023    -0.07390
C956        C  0.29126144  0.91606187  0.25605901    -0.18510
C957        C  0.32364125  0.91812689  0.23776345     0.09810
C958        C  0.32086388  0.87895990  0.22747087    -0.07310
C959        C  0.28893169  0.83876598  0.23944233    -0.18550
C960        C  0.25776210  0.83685789  0.25912612     0.09840
S961        S  0.36754452  0.97199340  0.22867138    -0.33510
S962        S  0.22399975  0.78475216  0.27620053    -0.33520
H963        H  0.18455392  0.78580676  0.27597098     0.27850
H964        H  0.40020095  0.95927593  0.22963249     0.27850
H965        H  0.29262376  0.94670673  0.26213320     0.18440
H966        H  0.28768606  0.80831947  0.23315409     0.18450
C967        C  0.22558326  0.03857392  0.26988796    -0.07390
C968        C  0.24927372  0.02751087  0.28809944    -0.18510
C969        C  0.27391411  0.05581369  0.30796316     0.09810
C970        C  0.27790767  0.09789691  0.30952869    -0.07310
C971        C  0.25278869  0.10881672  0.29236842    -0.18550
C972        C  0.22688594  0.07958375  0.27246517     0.09840
S973        S  0.30460088  0.03894250  0.32885109    -0.33510
S974        S  0.19863453  0.09693321  0.24984512    -0.33520
H975        H  0.21341907  0.08432001  0.22633750     0.27850
H976        H  0.29244469  0.05409216  0.35231056     0.27850
H977        H  0.24906510  0.99625385  0.28706009     0.18440
H978        H  0.25688910  0.14181067  0.29251829     0.18450
C979        C  0.92424187  0.88954499  0.20664564    -0.07390
C980        C  0.93264240  0.85420205  0.20921012    -0.18510
C981        C  0.97455784  0.86138409  0.21421962     0.09810
C982        C  0.00865953  0.90441775  0.21798515    -0.07310
C983        C  0.00197784  0.93990097  0.21163398    -0.18550
C984        C  0.96041049  0.93291418  0.20507977     0.09840
S985        S  0.98276732  0.81435817  0.21596051    -0.33510
S986        S  0.95567772  0.98097614  0.19639567    -0.33520
H987        H  0.92154059  0.95879799  0.17856350     0.27850
H988        H  0.01427776  0.83009817  0.19451374     0.27850
H989        H  0.90610153  0.82078733  0.20913975     0.18440
H990        H  0.02848575  0.97310863  0.21318759     0.18450
C991        C  0.11636470  0.01214449  0.30684230    -0.07390
C992        C  0.08432910  0.01632899  0.29289426    -0.18510
C993        C  0.09077384  0.05725674  0.28412882     0.09810
C994        C  0.12606174  0.09650002  0.29391604    -0.07310
C995        C  0.15257809  0.09182944  0.31321898    -0.18550
C996        C  0.14787358  0.04988539  0.31982899     0.09840
S997        S  0.05822322  0.05638275  0.25608925    -0.33510
S998        S  0.18195397  0.04607372  0.34509728    -0.33520
H999        H  0.15354902  0.00173117  0.35201136     0.27850
H1000       H  0.02227759  0.01470887  0.26177254     0.27850
H1001       H  0.05832412  0.98733321  0.28421155     0.18440
H1002       H  0.17789827  0.12076853  0.32236936     0.18450
C1003       C  0.23812973  0.86881673  0.00901297    -0.07390
C1004       C  0.23362681  0.83373722  0.99240844    -0.18510
C1005       C  0.26630217  0.83717846  0.47395425     0.09810
C1006       C  0.30616870  0.87648750  0.47162856    -0.07310
C1007       C  0.31206110  0.91136769  0.48870921    -0.18550
C1008       C  0.27909263  0.90748157  0.00779939     0.09840
S1009       S  0.25388775  0.79045956  0.45293848    -0.33510
S1010       S  0.29273819  0.95115663  0.03130216    -0.33520
H1011       H  0.27001055  0.92321270  0.05359735     0.27850
H1012       H  0.26989060  0.81586544  0.42889470     0.27850
H1013       H  0.20346848  0.80296267  0.99292508     0.18440
H1014       H  0.34323056  0.94113854  0.48799848     0.18450
C1015       C  0.23097130  0.01842857  0.05410329    -0.07390
C1016       C  0.27138118  0.03724639  0.04120125    -0.18510
C1017       C  0.30593437  0.07377958  0.05175672     0.09810
C1018       C  0.29896544  0.09384195  0.07577899    -0.07310
C1019       C  0.25694120  0.07678422  0.08719226    -0.18550
C1020       C  0.22275272  0.03924459  0.07682873     0.09840
S1021       S  0.35706972  0.08952037  0.03331645    -0.33510
S1022       S  0.16889990  0.01926045  0.09288897    -0.33520
H1023       H  0.17875135  0.05510508  0.10984145     0.27850
H1024       H  0.33993186  0.07665112  0.00745041     0.27850
H1025       H  0.27633109  0.02177144  0.02338638     0.18440
H1026       H  0.25108983  0.09234195  0.10467064     0.18450
C1027       C  0.14041333  0.88126150  0.36751391    -0.07390
C1028       C  0.10226795  0.84942553  0.38082055    -0.18510
C1029       C  0.09457200  0.85009277  0.40866339     0.09810
C1030       C  0.12582632  0.88473760  0.42439533    -0.07310
C1031       C  0.16450349  0.91633771  0.41124779    -0.18550
C1032       C  0.17240536  0.91471225  0.38327847     0.09840
S1033       S  0.04375190  0.80552741  0.42252052    -0.33510
S1034       S  0.22412588  0.95625701  0.36946923    -0.33520
H1035       H  0.23464959  0.92576140  0.35718638     0.27850
H1036       H  0.03605677  0.77574594  0.40141794     0.27850
H1037       H  0.07743590  0.82373101  0.36921657     0.18440
H1038       H  0.18898770  0.94251820  0.42282786     0.18450
C1039       C  0.13246534  0.88538611  0.17354821    -0.07390
C1040       C  0.09944339  0.88635975  0.15879892    -0.18510
C1041       C  0.09531417  0.87678478  0.13155781     0.09810
C1042       C  0.12700089  0.86900743  0.11771686    -0.07310
C1043       C  0.16119020  0.86928316  0.13226660    -0.18550
C1044       C  0.16380619  0.87664186  0.16031394     0.09840
S1045       S  0.04697158  0.87239394  0.11652896    -0.33510
S1046       S  0.20666702  0.87336027  0.17790415    -0.33520
H1047       H  0.18444243  0.86004048  0.20330839     0.27850
H1048       H  0.03665945  0.83242085  0.10398425     0.27850
H1049       H  0.07505191  0.89268365  0.16901251     0.18440
H1050       H  0.18568977  0.86345124  0.12183199     0.18450
C1051       C  0.91450860  0.87427467  0.46609618    -0.07390
C1052       C  0.91719556  0.83658748  0.47285834    -0.18510
C1053       C  0.95628960  0.83973685  0.48120307     0.09810
C1054       C  0.99316346  0.88171468  0.48431892    -0.07310
C1055       C  0.99213424  0.91867241  0.97389624    -0.18550
C1056       C  0.95357594  0.91518197  0.46398800     0.09840
S1057       S  0.95666772  0.78873105  0.48692243    -0.33510
S1058       S  0.95587132  0.96464328  0.95042255    -0.33520
H1059       H  0.91988620  0.94285140  0.43390721     0.27850
H1060       H  0.99696140  0.80295294  0.47306925     0.27850
H1061       H  0.88812907  0.80475240  0.47343887     0.18440
H1062       H  0.02094701  0.95060164  0.97435291     0.18450
C1063       C  0.11399630  0.09589187  0.04400160    -0.07390
C1064       C  0.15414932  0.09800097  0.03799994    -0.18510
C1065       C  0.15611403  0.06051143  0.03049400     0.09810
C1066       C  0.11879029  0.01867251  0.03433744    -0.07310
C1067       C  0.08032825  0.01604891  0.04579048    -0.18550
C1068       C  0.07719770  0.05454356  0.04971357     0.09840
S1069       S  0.20517762  0.06961415  0.01206832    -0.33510
S1070       S  0.02494440  0.04938884  0.05964912    -0.33520
H1071       H  0.04124248  0.09353073  0.06696062     0.27850
H1072       H  0.18635533  0.06634217  0.98681626     0.27850
H1073       H  0.18244356  0.12950772  0.03361102     0.18440
H1074       H  0.05171545  0.98429905  0.04918432     0.18450
C1075       C  0.81770991  0.79635287  0.29964709    -0.07390
C1076       C  0.77743941  0.77057857  0.31274175    -0.18510
C1077       C  0.77112387  0.73669499  0.33042228     0.09810
C1078       C  0.80722982  0.73059766  0.33765386    -0.07310
C1079       C  0.84916741  0.76447075  0.33025927    -0.18550
C1080       C  0.85487446  0.79574918  0.30996251     0.09840
S1081       S  0.71509902  0.69509229  0.33639670    -0.33510
S1082       S  0.90941507  0.83035864  0.29639019    -0.33520
H1083       H  0.89802021  0.82041406  0.26921875     0.27850
H1084       H  0.69556511  0.70837650  0.31655122     0.27850
H1085       H  0.74956754  0.77385607  0.30672097     0.18440
H1086       H  0.87737490  0.76293016  0.33713984     0.18450
C1087       C  0.88739711  0.69804159  0.28348548    -0.07390
C1088       C  0.90416754  0.71516600  0.30903494    -0.18510
C1089       C  0.94867717  0.74378683  0.31268802     0.09810
C1090       C  0.97855717  0.75484913  0.29048577    -0.07310
C1091       C  0.96198959  0.73919361  0.26486948    -0.18550
C1092       C  0.91723660  0.71172719  0.26105477     0.09840
S1093       S  0.96546142  0.76323233  0.34639683    -0.33510
S1094       S  0.90048307  0.69117057  0.22758197    -0.33520
H1095       H  0.85624630  0.67935339  0.23234545     0.27850
H1096       H  0.00847507  0.77032544  0.34291424     0.27850
H1097       H  0.88331540  0.70185448  0.32705567     0.18440
H1098       H  0.98426122  0.74894493  0.24752932     0.18450
C1099       C  0.59417538  0.56964058  0.41573100    -0.07390
C1100       C  0.63128155  0.61040511  0.41634044    -0.18510
C1101       C  0.66346852  0.62460880  0.39563325     0.09810
C1102       C  0.65923499  0.59679990  0.37320713    -0.07310
C1103       C  0.62291394  0.55497386  0.37317538    -0.18550
C1104       C  0.59144656  0.54055748  0.39459422     0.09840
S1105       S  0.71171828  0.67710724  0.40022574    -0.33510
S1106       S  0.55023844  0.48363357  0.39464856    -0.33520
H1107       H  0.54267248  0.47993184  0.42298726     0.27850
H1108       H  0.69495521  0.69261543  0.42131558     0.27850
H1109       H  0.63474676  0.63173705  0.43297104     0.18440
H1110       H  0.62111644  0.53191636  0.35781017     0.18450
C1111       C  0.77842304  0.42400801  0.31217615    -0.07390
C1112       C  0.73765407  0.38887369  0.31973276    -0.18510
C1113       C  0.73074525  0.34613881  0.31771438     0.09810
C1114       C  0.76578409  0.33950267  0.30887674    -0.07310
C1115       C  0.80255315  0.37358597  0.29568686    -0.18550
C1116       C  0.80983172  0.41655617  0.29783666     0.09840
S1117       S  0.68004115  0.30085399  0.33041115    -0.33510
S1118       S  0.86210427  0.46013399  0.28576474    -0.33520
H1119       H  0.87007320  0.48510655  0.30937877     0.27850
H1120       H  0.65797942  0.32517275  0.33561276     0.27850
H1121       H  0.71271670  0.39510654  0.32917491     0.18440
H1122       H  0.82902010  0.36803608  0.28818967     0.18450
C1123       C  0.65135188  0.46208881  0.33791806    -0.07390
C1124       C  0.64173278  0.42967516  0.35779321    -0.18510
C1125       C  0.60437138  0.38839707  0.35723022     0.09810
C1126       C  0.57477146  0.37815194  0.33586163    -0.07310
C1127       C  0.58478994  0.41010114  0.31535296    -0.18550
C1128       C  0.62246673  0.45173297  0.31620670     0.09840
S1129       S  0.59794988  0.34777102  0.38272156    -0.33510
S1130       S  0.63207388  0.48972029  0.28873040    -0.33520
H1131       H  0.65046025  0.52685673  0.30503653     0.27850
H1132       H  0.63250398  0.37536742  0.39893163     0.27850
H1133       H  0.66548599  0.43570762  0.37288622     0.18440
H1134       H  0.56307001  0.40278275  0.29869436     0.18450
C1135       C  0.78061260  0.70042761  0.08238807    -0.07390
C1136       C  0.76460832  0.69360516  0.05587942    -0.18510
C1137       C  0.76966631  0.72748727  0.03820873     0.09810
C1138       C  0.79210276  0.77165688  0.04615886    -0.07310
C1139       C  0.81105907  0.77976783  0.07192918    -0.18550
C1140       C  0.80609628  0.74494504  0.08970610     0.09840
S1141       S  0.75279101  0.71189539  0.50393735    -0.33510
S1142       S  0.83805549  0.75913419  0.11954852    -0.33520
H1143       H  0.80990144  0.72081950  0.13458408     0.27850
H1144       H  0.79116562  0.74586365  0.49166399     0.27850
H1145       H  0.75293105  0.66227429  0.04666920     0.18440
H1146       H  0.83067597  0.81339714  0.07806224     0.18450
C1147       C  0.98350007  0.74398221  0.06459289    -0.07390
C1148       C  0.94738174  0.75016686  0.06050246    -0.18510
C1149       C  0.91195624  0.71892903  0.04674309     0.09810
C1150       C  0.91082422  0.67895670  0.03930702    -0.07310
C1151       C  0.94514110  0.67140004  0.04703648    -0.18550
C1152       C  0.97939301  0.70210047  0.06159329     0.09840
S1153       S  0.87208970  0.73435565  0.03681159    -0.33510
S1154       S  0.02160252  0.68951842  0.07122466    -0.33520
H1155       H  0.03911147  0.72288951  0.09046134     0.27850
H1156       H  0.86804913  0.71611102  0.01108070     0.27850
H1157       H  0.95048649  0.78257002  0.06311140     0.18440
H1158       H  0.94475959  0.64077185  0.04267891     0.18450
C1159       C  0.58996690  0.57170848  0.15200512    -0.07390
C1160       C  0.57756392  0.54136809  0.13047099    -0.18510
C1161       C  0.60393511  0.54787762  0.10681998     0.09810
C1162       C  0.64576842  0.58463809  0.10384384    -0.07310
C1163       C  0.65801747  0.61590042  0.12474694    -0.18550
C1164       C  0.63145734  0.60961437  0.14862771     0.09840
S1165       S  0.58252516  0.50734556  0.08080341    -0.33510
S1166       S  0.65438480  0.64938152  0.17480722    -0.33520
H1167       H  0.63670829  0.61833045  0.19628758     0.27850
H1168       H  0.61239913  0.53352319  0.06003377     0.27850
H1169       H  0.54598115  0.51213294  0.13147575     0.18440
H1170       H  0.69043575  0.64385721  0.12375492     0.18450
C1171       C  0.75476840  0.55474933  0.48182290    -0.07390
C1172       C  0.73144138  0.51427992  0.46933095    -0.18510
C1173       C  0.73344893  0.51163254  0.44101988     0.09810
C1174       C  0.76211084  0.54941928  0.42538523    -0.07310
C1175       C  0.78520963  0.58954193  0.43846859    -0.18550
C1176       C  0.78097743  0.59278491  0.46614436     0.09840
S1177       S  0.69676937  0.46059683  0.42621790    -0.33510
S1178       S  0.81064534  0.64597703  0.48127723    -0.33520
H1179       H  0.83594334  0.66936400  0.45817881     0.27850
H1180       H  0.67969998  0.48126655  0.40958314     0.27850
H1181       H  0.71121566  0.48503388  0.48143946     0.18440
H1182       H  0.80684458  0.61911439  0.42700248     0.18450
C1183       C  0.73594417  0.53193194  0.24208095    -0.07390
C1184       C  0.73494250  0.56703923  0.22908332    -0.18510
C1185       C  0.74420056  0.57413962  0.20155385     0.09810
C1186       C  0.74729635  0.54147027  0.18578065    -0.07310
C1187       C  0.74407705  0.50385718  0.19861535    -0.18550
C1188       C  0.73961145  0.49942245  0.22688439     0.09840
S1189       S  0.75762528  0.62838808  0.18895996    -0.33510
S1190       S  0.74110439  0.45331129  0.24276702    -0.33520
H1191       H  0.72304923  0.45647737  0.26807554     0.27850
H1192       H  0.79276264  0.63283146  0.17192077     0.27850
H1193       H  0.73442800  0.59311210  0.24097404     0.18440
H1194       H  0.74591762  0.47849975  0.18675494     0.18450
C1195       C  0.82016753  0.37471068  0.06225079    -0.07390
C1196       C  0.78851373  0.37352311  0.04514845    -0.18510
C1197       C  0.78885082  0.41225506  0.03738561     0.09810
C1198       C  0.82003809  0.45214869  0.04803888    -0.07310
C1199       C  0.85535360  0.45387369  0.06163137    -0.18550
C1200       C  0.85554675  0.41530240  0.06916242     0.09840
S1201       S  0.74823899  0.40900427  0.01466751    -0.33510
S1202       S  0.89847855  0.41996939  0.09050305    -0.33520
H1203       H  0.87045841  0.38715666  0.10920377     0.27850
H1204       H  0.76991476  0.45386733  0.00719571     0.27850
H1205       H  0.76268745  0.34231463  0.03864213     0.18440
H1206       H  0.87969305  0.48463196  0.06960299     0.18450
C1207       C  0.57114889  0.36703987  0.06860703    -0.07390
C1208       C  0.60926386  0.38843515  0.05251394    -0.18510
C1209       C  0.64277071  0.42880229  0.06018695     0.09810
C1210       C  0.64049275  0.44634610  0.08569537    -0.07310
C1211       C  0.60187007  0.42666301  0.10118739    -0.18550
C1212       C  0.56626190  0.38836699  0.09235044     0.09840
S1213       S  0.68796930  0.45708070  0.03655445    -0.33510
S1214       S  0.51675416  0.36738964  0.11314986    -0.33520
H1215       H  0.52666680  0.40650153  0.12676789     0.27850
H1216       H  0.69770168  0.49875227  0.04604401     0.27850
H1217       H  0.61264650  0.37406711  0.03368783     0.18440
H1218       H  0.60021271  0.44031438  0.12065093     0.18450
C1219       C  0.94466245  0.42417317  0.42316225    -0.07390
C1220       C  0.93135452  0.43468338  0.39895865    -0.18510
C1221       C  0.90488858  0.40278812  0.38095293     0.09810
C1222       C  0.88997629  0.35823435  0.38728787    -0.07310
C1223       C  0.90051805  0.34710024  0.41248786    -0.18550
C1224       C  0.92769168  0.37946902  0.43030864     0.09840
S1225       S  0.89110520  0.42135565  0.35046042    -0.33510
S1226       S  0.94070022  0.36187941  0.46145633    -0.33520
H1227       H  0.94956205  0.40002842  0.47583996     0.27850
H1228       H  0.84652862  0.39033384  0.35258969     0.27850
H1229       H  0.94207185  0.46802213  0.39341732     0.18440
H1230       H  0.88794237  0.31287049  0.41822992     0.18450
C1231       C  0.04857063  0.64823485  0.44854889    -0.07390
C1232       C  0.07522882  0.68975264  0.43652504    -0.18510
C1233       C  0.08743107  0.72716194  0.45138102     0.09810
C1234       C  0.06889554  0.72309141  0.47769306    -0.07310
C1235       C  0.03652400  0.68235805  0.98791769    -0.18550
C1236       C  0.02541382  0.64461862  0.47324016     0.09840
S1237       S  0.13019554  0.77797791  0.43660094    -0.33510
S1238       S  0.98257396  0.59340118  0.98719246    -0.33520
H1239       H  0.96977777  0.57377758  0.46180441     0.27850
H1240       H  0.14922923  0.79667870  0.46113409     0.27850
H1241       H  0.09160541  0.69312880  0.41690628     0.18440
H1242       H  0.01992117  0.67999793  0.00731941     0.18450
C1243       C  0.97718006  0.55692303  0.38161785    -0.07390
C1244       C  0.94003791  0.54607125  0.39849884    -0.18510
C1245       C  0.90809907  0.55629303  0.39100049     0.09810
C1246       C  0.91218419  0.57591617  0.36524263    -0.07310
C1247       C  0.95237576  0.59278434  0.35038256    -0.18550
C1248       C  0.98536975  0.58414830  0.35868516     0.09840
S1249       S  0.86243511  0.54103919  0.41467668    -0.33510
S1250       S  0.03688162  0.60948839  0.33982535    -0.33520
H1251       H  0.06235484  0.60985167  0.36140665     0.27850
H1252       H  0.86005634  0.57976660  0.40968210     0.27850
H1253       H  0.93493761  0.52795015  0.41741877     0.18440
H1254       H  0.95726936  0.61062358  0.33140286     0.18450
C1255       C  0.10316865  0.42756117  0.43667894    -0.07390
C1256       C  0.12589294  0.43931375  0.46105816    -0.18510
C1257       C  0.12138900  0.40765077  0.48047265     0.09810
C1258       C  0.09325520  0.36299802  0.47585039    -0.07310
C1259       C  0.06910704  0.35137913  0.45219314    -0.18550
C1260       C  0.07441316  0.38260308  0.43240256     0.09840
S1261       S  0.15532246  0.42569533  0.50934859    -0.33510
S1262       S  0.04615780  0.36194143  0.40142951    -0.33520
H1263       H  0.08372085  0.38624245  0.38463035     0.27850
H1264       H  0.12218719  0.39749716  0.02791363     0.27850
H1265       H  0.14789069  0.47346291  0.46504247     0.18440
H1266       H  0.04830904  0.31694424  0.44805634     0.18450
C1267       C  0.23612636  0.57869696  0.43666572    -0.07390
C1268       C  0.26356155  0.60154739  0.45740954    -0.18510
C1269       C  0.30488881  0.60528096  0.45801400     0.09810
C1270       C  0.31891692  0.58669207  0.43694850    -0.07310
C1271       C  0.29353211  0.56861725  0.41470002    -0.18550
C1272       C  0.25155270  0.56266554  0.41458508     0.09840
S1273       S  0.33730658  0.63293224  0.48645174    -0.33510
S1274       S  0.21901301  0.53305660  0.38623184    -0.33520
H1275       H  0.25124125  0.52858890  0.37081567     0.27850
H1276       H  0.37692480  0.64790540  0.47178022     0.27850
H1277       H  0.25223345  0.61521159  0.47355997     0.18440
H1278       H  0.30485357  0.55466258  0.39874670     0.18450
C1279       C  0.31570341  0.76436916  0.39347930    -0.07390
C1280       C  0.28239167  0.76266095  0.37718632    -0.18510
C1281       C  0.24450060  0.72283397  0.37238697     0.09810
C1282       C  0.23989519  0.68305990  0.38327562    -0.07310
C1283       C  0.27468462  0.68445681  0.39743587    -0.18550
C1284       C  0.31083042  0.72412570  0.40379374     0.09840
S1285       S  0.20314028  0.72506564  0.35258457    -0.33510
S1286       S  0.34392820  0.72078236  0.42959420    -0.33520
H1287       H  0.33112990  0.74400929  0.44783386     0.27850
H1288       H  0.18656284  0.68237772  0.34248446     0.27850
H1289       H  0.28498971  0.79282582  0.36893827     0.18440
H1290       H  0.27167286  0.65463353  0.40636427     0.18450
C1291       C  0.11080283  0.56083078  0.25899743    -0.07390
C1292       C  0.15095548  0.57495617  0.27086489    -0.18510
C1293       C  0.15279240  0.57358680  0.29888469     0.09810
C1294       C  0.11353560  0.55719827  0.31462319    -0.07310
C1295       C  0.07460267  0.54859536  0.30285274    -0.18550
C1296       C  0.07314645  0.55188466  0.27501667     0.09840
S1297       S  0.20442281  0.58693530  0.31303806    -0.33510
S1298       S  0.02296842  0.54332193  0.26022282    -0.33520
H1299       H  0.00012978  0.54112249  0.28474844     0.27850
H1300       H  0.20434190  0.62020088  0.32920959     0.27850
H1301       H  0.18018962  0.58409602  0.25837735     0.18440
H1302       H  0.04500275  0.53737059  0.31539451     0.18450
C1303       C  0.11718776  0.56343627  0.00580087    -0.07390
C1304       C  0.12425536  0.53150809  0.01858242    -0.18510
C1305       C  0.13509654  0.53542955  0.04580584     0.09810
C1306       C  0.13771357  0.57159581  0.06063524    -0.07310
C1307       C  0.13619938  0.60591935  0.04686255    -0.18550
C1308       C  0.12392983  0.60164848  0.02015803     0.09840
S1309       S  0.14356240  0.49252676  0.06037568    -0.33510
S1310       S  0.11247926  0.64355020  0.00643674    -0.33520
H1311       H  0.12151332  0.67021005  0.52931949     0.27850
H1312       H  0.17899912  0.52153334  0.07560865     0.27850
H1313       H  0.12113494  0.50336996  0.00738749     0.18440
H1314       H  0.13981044  0.63423202  0.05802653     0.18450
C1315       C  0.89295737  0.32977786  0.14650290    -0.07390
C1316       C  0.93162730  0.34272830  0.13137644    -0.18510
C1317       C  0.96891074  0.38125158  0.13709456     0.09810
C1318       C  0.96866629  0.40620403  0.16004082    -0.07310
C1319       C  0.93195330  0.38961884  0.17763576    -0.18550
C1320       C  0.89389078  0.35176641  0.17092913     0.09840
S1321       S  0.01379747  0.39989159  0.11217955    -0.33510
S1322       S  0.84743166  0.33357248  0.19390049    -0.33520
H1323       H  0.83633862  0.28993734  0.18905130     0.27850
H1324       H  0.00072139  0.35980380  0.09901537     0.27850
H1325       H  0.93122522  0.32589305  0.11282621     0.18440
H1326       H  0.93181209  0.40778538  0.19544495     0.18450
C1327       C  0.11287071  0.68089217  0.20097400    -0.07390
C1328       C  0.07294312  0.68180161  0.20109145    -0.18510
C1329       C  0.06857913  0.71700213  0.21173371     0.09810
C1330       C  0.10483523  0.75222184  0.22336045    -0.07310
C1331       C  0.14525373  0.75236450  0.22177328    -0.18550
C1332       C  0.14949789  0.71704832  0.21161466     0.09840
S1333       S  0.01725652  0.71690278  0.20854383    -0.33510
S1334       S  0.20265414  0.72074415  0.21313955    -0.33520
H1335       H  0.18646689  0.67965006  0.22646272     0.27850
H1336       H  0.99295890  0.67375451  0.19937103     0.27850
H1337       H  0.04497785  0.65515373  0.19213991     0.18440
H1338       H  0.17411523  0.78012996  0.22902323     0.18450
C1339       C  0.91096012  0.57352422  0.10365566    -0.07390
C1340       C  0.93694750  0.57209017  0.08148015    -0.18510
C1341       C  0.97189938  0.56300342  0.08497699     0.09810
C1342       C  0.98016796  0.55275517  0.11112198    -0.07310
C1343       C  0.95368663  0.55388310  0.13314197    -0.18550
C1344       C  0.92012066  0.56450917  0.12979516     0.09840
S1345       S  0.00473342  0.56525954  0.05551894    -0.33510
S1346       S  0.88893928  0.56453668  0.15976556    -0.33520
H1347       H  0.87554111  0.59370284  0.14925091     0.27850
H1348       H  0.04462051  0.58961829  0.06814606     0.27850
H1349       H  0.92852319  0.57559586  0.06108363     0.18440
H1350       H  0.95937290  0.54668610  0.15355481     0.18450
C1351       C  0.07160791  0.39772703  0.17168962    -0.07390
C1352       C  0.03777646  0.37838779  0.19204919    -0.18510
C1353       C  0.03337089  0.34468721  0.20960680     0.09810
C1354       C  0.06403252  0.32951590  0.20772868    -0.07310
C1355       C  0.09554333  0.34543967  0.18600121    -0.18550
C1356       C  0.09805020  0.37754942  0.16718167     0.09840
S1357       S  0.98939207  0.32456091  0.23508761    -0.33510
S1358       S  0.13242880  0.38801234  0.13717843    -0.33520
H1359       H  0.10875466  0.40187462  0.12102321     0.27850
H1360       H  0.01161582  0.31619702  0.25558509     0.27850
H1361       H  0.01607208  0.39188399  0.19601370     0.18440
H1362       H  0.11771323  0.33201701  0.18328621     0.18450
C1363       C  0.28257590  0.51106181  0.16966471    -0.07390
C1364       C  0.27269035  0.52718251  0.19354846    -0.18510
C1365       C  0.23035906  0.51938841  0.20045810     0.09810
C1366       C  0.19719920  0.50004686  0.18168553    -0.07310
C1367       C  0.20732362  0.48503452  0.15730922    -0.18550
C1368       C  0.24866509  0.48835390  0.15167698     0.09840
S1369       S  0.22207368  0.54043545  0.23216658    -0.33510
S1370       S  0.25731951  0.46772488  0.11983227    -0.33520
H1371       H  0.30163782  0.49885423  0.11610027     0.27850
H1372       H  0.17698942  0.51134083  0.23464243     0.27850
H1373       H  0.29805456  0.54658739  0.20714209     0.18440
H1374       H  0.18448883  0.47527004  0.14120091     0.18450
C1375       C  0.23449861  0.69220129  0.12749458    -0.07390
C1376       C  0.27228586  0.68878028  0.13273984    -0.18510
C1377       C  0.31246046  0.72593177  0.13694002     0.09810
C1378       C  0.31525893  0.76784555  0.13616262    -0.07310
C1379       C  0.27906687  0.77136323  0.12718386    -0.18550
C1380       C  0.23879129  0.73434780  0.12313210     0.09840
S1381       S  0.35773446  0.71715696  0.14467431    -0.33510
S1382       S  0.19324361  0.74209739  0.11364257    -0.33520
H1383       H  0.21380751  0.78805829  0.11578668     0.27850
H1384       H  0.38709059  0.75079610  0.12676989     0.27850
H1385       H  0.27015131  0.65677197  0.13524134     0.18440
H1386       H  0.28147855  0.80347585  0.12484671     0.18450
O1387       O  0.15110514  0.64348469  0.68320602    -0.81400
O1388       O  0.01552965  0.47262220  0.64075100    -0.81420
O1389       O  0.03394848  0.56036750  0.64058804    -0.81430
O1390       O  0.07249469  0.51505334  0.72447353    -0.81370
O1391       O  0.03855699  0.53101434  0.60370371    -0.81500
O1392       O  0.13718963  0.57366216  0.71293142    -0.81410
O1393       O  0.02562024  0.46716407  0.68365677    -0.81400
O1394       O  0.08308032  0.61746130  0.67426263    -0.81440
C1395       C  0.11559589  0.64471580  0.68644401     1.08290
C1396       C  0.00393710  0.45160186  0.66243574     1.08180
C1397       C  0.01860760  0.54684278  0.61819503     1.08310
C1398       C  0.10674399  0.54919023  0.73078295     1.08190
O1399       O  0.17928477  0.55025531  0.66498539    -0.81400
O1400       O  0.12736352  0.53772952  0.60354756    -0.81480
O1401       O  0.15618515  0.65418317  0.63429553    -0.81410
O1402       O  0.08048380  0.46675318  0.68270314    -0.81390
O1403       O  0.09245499  0.46089475  0.63889871    -0.81440
O1404       O  0.18988133  0.61660622  0.63738163    -0.81410
O1405       O  0.12915933  0.50338668  0.69297539    -0.81370
O1406       O  0.11046725  0.59139709  0.59981475    -0.81440
Co1407     Co  0.16054950  0.59218778  0.67254569     1.51530
Co1408     Co  0.07301441  0.50434707  0.62369434     1.51690
Co1409     Co  0.09518691  0.60246685  0.63808032     1.51570
Co1410     Co  0.08200952  0.52505120  0.68806785     1.51470
O1411       O  0.10308789  0.55250138  0.65276882    -1.43330
C1412       C  0.16625429  0.51760712  0.67999574     1.08220
C1413       C  0.12765150  0.56858741  0.58996328     1.08310
C1414       C  0.19129845  0.65223714  0.63147875     1.08240
C1415       C  0.08267694  0.44383327  0.66294988     1.08220
O1416       O  0.11738101  0.59418053  0.96410518    -0.81400
O1417       O  0.08309691  0.45618557  0.89805116    -0.81420
O1418       O  0.98934584  0.48248476  0.95468872    -0.81430
O1419       O  0.16267694  0.53897169  0.92821552    -0.81370
O1420       O  0.02171582  0.46519464  0.92294088    -0.81500
O1421       O  0.18844049  0.60886492  0.93649482    -0.81410
O1422       O  0.13769178  0.50283745  0.92139240    -0.81400
O1423       O  0.08304489  0.52197156  0.96630263    -0.81440
C1424       C  0.10597166  0.55883403  0.97717363     1.08290
C1425       C  0.10820856  0.46325394  0.91762977     1.08180
C1426       C  0.98587697  0.45809640  0.93440862     1.08310
C1427       C  0.19297795  0.57476325  0.93667855     1.08190
O1428       O  0.16206484  0.64142848  0.89052585    -0.81400
O1429       O  0.02251684  0.52309625  0.87472589    -0.81480
O1430       O  0.04460595  0.57811028  0.95348214    -0.81410
O1431       O  0.13685774  0.57029046  0.85864565    -0.81390
O1432       O  0.08216722  0.50733672  0.85098249    -0.81440
O1433       O  0.08448124  0.62148552  0.91967483    -0.81410
O1434       O  0.19814419  0.60486105  0.88791014    -0.81370
O1435       O  0.01006704  0.53903323  0.91500880    -0.81440
Co1436     Co  0.13476988  0.61282674  0.92607935     1.51530
Co1437     Co  0.05476796  0.49276357  0.88791165     1.51690
Co1438     Co  0.04679251  0.52615396  0.93767006     1.51570
Co1439     Co  0.14376279  0.54496401  0.89158975     1.51470
O1440       O  0.09700244  0.55210945  0.90937699    -1.43330
C1441       C  0.19775799  0.64122203  0.88535117     1.08220
C1442       C  0.00621421  0.54029976  0.89028468     1.08310
C1443       C  0.05777510  0.61345987  0.93959704     1.08240
C1444       C  0.11081147  0.54459480  0.84266925     1.08220
O1445       O  0.83682941  0.52623073  0.55048161    -0.81400
O1446       O  0.69045703  0.55227007  0.60256848    -0.81420
O1447       O  0.71005007  0.46690580  0.59799546    -0.81430
O1448       O  0.74303681  0.57843406  0.52407043    -0.81370
O1449       O  0.68943161  0.51673036  0.60509912    -0.81500
O1450       O  0.78725959  0.54975083  0.52090383    -0.81410
O1451       O  0.70791373  0.60202284  0.57063130    -0.81400
O1452       O  0.77377186  0.47712802  0.56660997    -0.81440
C1453       C  0.80908476  0.48684149  0.55403255     1.08290
C1454       C  0.68154702  0.57865607  0.59001485     1.08180
C1455       C  0.68110906  0.47776346  0.59794376     1.08310
C1456       C  0.75923937  0.55823894  0.51093464     1.08190
O1457       O  0.87075113  0.60441572  0.52871275    -0.81400
O1458       O  0.73501764  0.56887178  0.64645948    -0.81480
O1459       O  0.83476835  0.53396086  0.60534699    -0.81410
O1460       O  0.80603939  0.64935804  0.58426077    -0.81390
O1461       O  0.75387043  0.63227976  0.61069516    -0.81440
O1462       O  0.86320715  0.59762587  0.58379491    -0.81410
O1463       O  0.83409533  0.63866631  0.54185518    -0.81370
O1464       O  0.76346974  0.52405947  0.64059677    -0.81440
Co1465     Co  0.82258590  0.57469639  0.55317590     1.51530
Co1466     Co  0.75141356  0.56991582  0.61125116     1.51690
Co1467     Co  0.77082774  0.50602388  0.60058045     1.51570
Co1468     Co  0.77050092  0.61113750  0.55629987     1.51470
O1469       O  0.76902030  0.55656668  0.57633252    -1.43330
C1470       C  0.86974280  0.63969485  0.53324852     1.08220
C1471       C  0.74886475  0.54482024  0.65619545     1.08310
C1472       C  0.86760542  0.56989502  0.59834638     1.08240
C1473       C  0.78335381  0.66241870  0.59598588     1.08220
O1474       O  0.80328130  0.49943447  0.80456352    -0.81400
O1475       O  0.73011593  0.61415966  0.87360350    -0.81420
O1476       O  0.72585953  0.49668510  0.82498435    -0.81430
O1477       O  0.73175008  0.54936693  0.78735230    -0.81370
O1478       O  0.70764232  0.53293908  0.85365569    -0.81500
O1479       O  0.79383726  0.55646138  0.76985952    -0.81410
O1480       O  0.70254058  0.59227658  0.83255761    -0.81400
O1481       O  0.77873480  0.47099345  0.84619699    -0.81440
C1482       C  0.78798897  0.46696118  0.82167238     1.08290
C1483       C  0.69915689  0.60337337  0.85806062     1.08180
C1484       C  0.69639349  0.50045027  0.83769213     1.08310
C1485       C  0.75334298  0.54278556  0.76868775     1.08190
O1486       O  0.86429913  0.62730708  0.79438191    -0.81400
O1487       O  0.78840606  0.58840485  0.88433441    -0.81480
O1488       O  0.83641056  0.55169962  0.86199225    -0.81410
O1489       O  0.77953804  0.66570511  0.81589492    -0.81390
O1490       O  0.80778493  0.66241350  0.85336229    -0.81440
O1491       O  0.87735068  0.57666523  0.82560605    -0.81410
O1492       O  0.81172049  0.63746905  0.77815564    -0.81370
O1493       O  0.75523022  0.51794118  0.88070963    -0.81440
Co1494     Co  0.83151571  0.56651772  0.80053055     1.51530
Co1495     Co  0.76266719  0.59770466  0.85275424     1.51690
Co1496     Co  0.78181641  0.52586527  0.84246680     1.51570
Co1497     Co  0.75821205  0.60654625  0.80467235     1.51470
O1498       O  0.79392385  0.58314142  0.82757333    -1.43330
C1499       C  0.85164060  0.65221251  0.78490350     1.08220
C1500       C  0.76861271  0.55119664  0.89562477     1.08310
C1501       C  0.87357042  0.56919037  0.85061776     1.08240
C1502       C  0.79947457  0.68462647  0.83622472     1.08220
O1503       O  0.08278973  0.76125445  0.51837179    -0.81400
O1504       O  0.19228367  0.96029991  0.02087471    -0.81420
O1505       O  0.08013852  0.86287083  0.96381337    -0.81430
O1506       O  0.19291642  0.89266820  0.53741249    -0.81370
O1507       O  0.14759315  0.91588217  0.96909316    -0.81500
O1508       O  0.16552246  0.82472839  0.52379123    -0.81410
O1509       O  0.17320973  0.95171484  0.56405194    -0.81400
O1510       O  0.07812649  0.79274878  0.98107640    -0.81440
C1511       C  0.07823614  0.76133668  0.99315743     1.08290
C1512       C  0.19823924  0.97537708  0.04558030     1.08180
C1513       C  0.11833925  0.88788633  0.95409261     1.08310
C1514       C  0.19735242  0.86252549  0.52453050     1.08190
O1515       O  0.14482171  0.84586228  0.57545067    -0.81400
O1516       O  0.07033231  0.91399124  0.49004094    -0.81480
O1517       O  0.02124909  0.78285221  0.52652632    -0.81410
O1518       O  0.10507946  0.94296895  0.53980860    -0.81390
O1519       O  0.13887859  0.98142697  0.50177989    -0.81440
O1520       O  0.05811497  0.79476031  0.56370142    -0.81410
O1521       O  0.10698218  0.87837884  0.57405073    -0.81370
O1522       O  0.02868775  0.85930404  0.51513376    -0.81440
Co1523     Co  0.11283851  0.81111297  0.54322858     1.51530
Co1524     Co  0.12809053  0.92385764  0.00609714     1.51690
Co1525     Co  0.05485847  0.82690387  0.49812111     1.51570
Co1526     Co  0.14047007  0.90771785  0.54115771     1.51470
O1527       O  0.10881698  0.85919820  0.51821328    -1.43330
C1528       C  0.12610253  0.86374629  0.58813988     1.08220
C1529       C  0.03218176  0.88717083  0.49830060     1.08310
C1530       C  0.02299898  0.77762452  0.55167431     1.08240
C1531       C  0.11997595  0.97907755  0.52485562     1.08220
O1532       O  0.13360284  0.81007893  0.75400107    -0.81400
O1533       O  0.16768355  0.00220157  0.73697480    -0.81420
O1534       O  0.08972718  0.86341973  0.71322307    -0.81430
O1535       O  0.21205503  0.90867485  0.76824003    -0.81370
O1536       O  0.15652137  0.91831232  0.71626996    -0.81500
O1537       O  0.18825693  0.85102797  0.79348526    -0.81410
O1538       O  0.19748427  0.96745976  0.75296104    -0.81400
O1539       O  0.06826131  0.79158451  0.74168503    -0.81440
C1540       C  0.10217259  0.78707255  0.73967577     1.08290
C1541       C  0.19808290  0.00359989  0.75091321     1.08180
C1542       C  0.12752545  0.88812990  0.70284027     1.08310
C1543       C  0.21691695  0.87781927  0.77681496     1.08190
O1544       O  0.11379765  0.84656298  0.82554120    -0.81400
O1545       O  0.08612389  0.93470531  0.72308449    -0.81480
O1546       O  0.03210561  0.82759639  0.78546158    -0.81410
O1547       O  0.15501234  0.96923994  0.80555432    -0.81390
O1548       O  0.10568630  0.95628928  0.77625544    -0.81440
O1549       O  0.05711399  0.78282627  0.79119671    -0.81410
O1550       O  0.17601111  0.90717643  0.82376316    -0.81370
O1551       O  0.04369611  0.89050303  0.75373465    -0.81440
Co1552     Co  0.12297939  0.82846197  0.78935493     1.51530
Co1553     Co  0.13295425  0.93787433  0.74740275     1.51690
Co1554     Co  0.06281351  0.84630027  0.75042960     1.51570
Co1555     Co  0.17984264  0.93339383  0.78694898     1.51470
O1556       O  0.12039470  0.88269759  0.77054543    -1.43330
C1557       C  0.14359332  0.87847430  0.83739821     1.08220
C1558       C  0.04784249  0.91153295  0.73230471     1.08310
C1559       C  0.02469128  0.79003031  0.79145273     1.08240
C1560       C  0.12486279  0.97588253  0.79706500     1.08220
O1561       O  0.52204925  0.21959811  0.59261724    -0.81400
O1562       O  0.32848002  0.15802391  0.60544565    -0.81060
O1563       O  0.45511251  0.26389090  0.63772355    -0.81430
O1564       O  0.40636040  0.14333184  0.57472454    -0.81370
O1565       O  0.41071757  0.19293253  0.63301594    -0.81500
O1566       O  0.47145464  0.15983106  0.55832111    -0.81410
O1567       O  0.37351001  0.14478689  0.57995102    -0.81400
O1568       O  0.53118340  0.28145033  0.61123562    -0.81440
C1569       C  0.53886828  0.24871725  0.61011032     1.08290
C1570       C  0.33398582  0.13330838  0.58818417     1.08180
C1571       C  0.43558819  0.22490478  0.64784938     1.08310
C1572       C  0.43755146  0.13331640  0.57192371     1.08190
O1573       O  0.48034445  0.22849450  0.51973925    -0.81400
O1574       O  0.38104975  0.25368044  0.61754197    -0.81480
O1575       O  0.49907934  0.31364788  0.56433269    -0.81410
O1576       O  0.35735750  0.17191512  0.53369240    -0.81390
O1577       O  0.35956860  0.21807625  0.56478213    -0.81440
O1578       O  0.54542322  0.29142024  0.55648339    -0.81410
O1579       O  0.43146155  0.24832968  0.52952014    -0.81370
O1580       O  0.43022906  0.29884349  0.58964901    -0.81440
Co1581     Co  0.50069150  0.22570081  0.55809203     1.51530
Co1582     Co  0.38853377  0.20460950  0.59807375     1.51690
Co1583     Co  0.47784737  0.28769779  0.59967772     1.51570
Co1584     Co  0.40902191  0.19802469  0.55504737     1.51470
O1585       O  0.45133855  0.23110651  0.58120784    -1.43330
C1586       C  0.45294377  0.24020119  0.51149701     1.08220
C1587       C  0.40151793  0.29243758  0.60736484     1.08310
C1588       C  0.53743565  0.32293768  0.56064833     1.08240
C1589       C  0.34127227  0.19509121  0.54360790     1.08220
O1590       O  0.54848760  0.25181333  0.81982010    -0.81400
O1591       O  0.32746515  0.16097427  0.83595146    -0.81420
O1592       O  0.42622343  0.20034919  0.88058092    -0.81430
O1593       O  0.40726680  0.15194345  0.83842055    -0.81370
O1594       O  0.37361753  0.21445773  0.88574397    -0.81500
O1595       O  0.47243054  0.17836733  0.82122033    -0.81410
O1596       O  0.35146223  0.13653652  0.80067129    -0.81400
O1597       O  0.51054753  0.23192734  0.85970728    -0.81440
C1598       C  0.54367215  0.23769439  0.84436899     1.08290
C1599       C  0.32086010  0.13335284  0.81634436     1.08180
C1600       C  0.40030496  0.20420769  0.89666770     1.08310
C1601       C  0.44093103  0.14825796  0.83519949     1.08190
O1602       O  0.48789464  0.24602699  0.77816121    -0.81400
O1603       O  0.39800551  0.29120603  0.85102799    -0.81480
O1604       O  0.51657798  0.31662456  0.85789032    -0.81410
O1605       O  0.38233404  0.21639010  0.78168922    -0.81390
O1606       O  0.35209006  0.24282344  0.80946143    -0.81440
O1607       O  0.52045739  0.31169191  0.81435947    -0.81410
O1608       O  0.43231899  0.18051378  0.77991807    -0.81370
O1609       O  0.43991117  0.29078043  0.88270998    -0.81440
Co1610     Co  0.49183381  0.24571249  0.81854120     1.51530
Co1611     Co  0.36983493  0.22804480  0.84455439     1.51690
Co1612     Co  0.46903746  0.25726695  0.86673403     1.51570
Co1613     Co  0.39721948  0.18732332  0.81131586     1.51470
O1614       O  0.43473212  0.24170375  0.82961990    -1.43330
C1615       C  0.45934168  0.21371006  0.76575204     1.08220
C1616       C  0.42191531  0.30963683  0.87053891     1.08310
C1617       C  0.53462982  0.33400963  0.83550272     1.08240
C1618       C  0.35727977  0.23244669  0.78560941     1.08220
O1619       O  0.38640124  0.81018771  0.65579724    -0.81400
O1620       O  0.52893137  0.90275955  0.64731127    -0.81420
O1621       O  0.39914232  0.88830058  0.61248890    -0.81430
O1622       O  0.46842636  0.84450167  0.70063311    -0.81370
O1623       O  0.45004227  0.86900188  0.61913649    -0.81500
O1624       O  0.39752327  0.79639929  0.70854749    -0.81410
O1625       O  0.49890238  0.87188190  0.68653729    -0.81400
O1626       O  0.34400606  0.83961431  0.65244151    -0.81440
C1627       C  0.35113459  0.80775819  0.64800520     1.08290
C1628       C  0.53018619  0.88316681  0.66902347     1.08180
C1629       C  0.42327555  0.87160341  0.60417168     1.08310
C1630       C  0.43690735  0.80436128  0.70772225     1.08190
O1631       O  0.42624625  0.87947165  0.72464482    -0.81400
O1632       O  0.46191474  0.95978671  0.61294743    -0.81480
O1633       O  0.36929168  0.91156355  0.68811884    -0.81410
O1634       O  0.54086233  0.95972777  0.68315354    -0.81390
O1635       O  0.51548245  0.98113821  0.65143460    -0.81440
O1636       O  0.35509507  0.84515474  0.70094350    -0.81410
O1637       O  0.49741344  0.91679679  0.73142985    -0.81370
O1638       O  0.42232130  0.96707185  0.64542295    -0.81440
Co1639     Co  0.41170754  0.84763987  0.68789489     1.51530
Co1640     Co  0.48613389  0.92513490  0.63423251     1.51690
Co1641     Co  0.38701802  0.90281540  0.65081089     1.51570
Co1642     Co  0.47666208  0.91262888  0.69661463     1.51470
O1643       O  0.44039874  0.90152684  0.66467373    -1.43330
C1644       C  0.45821669  0.89517701  0.74065867     1.08220
C1645       C  0.44280583  0.98044288  0.62282293     1.08310
C1646       C  0.35014674  0.87889437  0.70455890     1.08240
C1647       C  0.54810412  0.98534210  0.66259928     1.08220
O1648       O  0.38721425  0.81360910  0.91062265    -0.81400
O1649       O  0.52703438  0.90844269  0.89749114    -0.81420
O1650       O  0.39780359  0.89558369  0.86270957    -0.81430
O1651       O  0.47036315  0.85522122  0.95299541    -0.81370
O1652       O  0.44850596  0.87599204  0.86879398    -0.81500
O1653       O  0.40074107  0.80759575  0.96474540    -0.81410
O1654       O  0.50159947  0.88151450  0.93857451    -0.81400
O1655       O  0.34357675  0.84066949  0.90153895    -0.81440
C1656       C  0.35133222  0.80837666  0.90165771     1.08290
C1657       C  0.53068893  0.89105214  0.91951423     1.08180
C1658       C  0.42273807  0.88047933  0.85382556     1.08310
C1659       C  0.44024168  0.81595095  0.96194928     1.08190
O1660       O  0.42365687  0.89198331  0.97568908    -0.81400
O1661       O  0.46021623  0.96777899  0.86562925    -0.81480
O1662       O  0.36401343  0.91388866  0.93816601    -0.81410
O1663       O  0.53800835  0.96639901  0.93588880    -0.81390
O1664       O  0.51608852  0.98716081  0.90161048    -0.81440
O1665       O  0.35114853  0.84841269  0.95130605    -0.81410
O1666       O  0.49397812  0.92584145  0.98347619    -0.81370
O1667       O  0.41757721  0.97052883  0.89787310    -0.81440
Co1668     Co  0.41072253  0.85516903  0.94113994     1.51530
Co1669     Co  0.48459982  0.93129456  0.88504577     1.51690
Co1670     Co  0.38405758  0.90602727  0.90132008     1.51570
Co1671     Co  0.47475001  0.92007796  0.94798252     1.51470
O1672       O  0.43847831  0.90666582  0.91550968    -1.43330
C1673       C  0.45457718  0.90343429  0.49220236     1.08220
C1674       C  0.44121082  0.98771081  0.87673395     1.08310
C1675       C  0.34247857  0.88008595  0.95305828     1.08240
C1676       C  0.54679220  0.99168229  0.91521026     1.08220
O1677       O  0.77745346  0.30823150  0.58740000    -0.81400
O1678       O  0.71202140  0.12444837  0.57510627    -0.81420
O1679       O  0.77528405  0.24891767  0.54983002    -0.81430
O1680       O  0.68456632  0.18739553  0.64245134    -0.81370
O1681       O  0.78330483  0.19006984  0.54686875    -0.81500
O1682       O  0.70246540  0.23771607  0.61101539    -0.81410
O1683       O  0.68068605  0.14752051  0.60069025    -0.81400
O1684       O  0.84331176  0.32281186  0.57044918    -0.81440
C1685       C  0.81386323  0.33373707  0.57418967     1.08290
C1686       C  0.67861278  0.11526992  0.59021853     1.08180
C1687       C  0.77544264  0.21819537  0.53580151     1.08310
C1688       C  0.67612947  0.21438757  0.62953537     1.08190
O1689       O  0.75222584  0.24069345  0.65951153    -0.81400
O1690       O  0.84121536  0.20352339  0.59274386    -0.81480
O1691       O  0.85192227  0.27814831  0.61329765    -0.81410
O1692       O  0.74861734  0.11401654  0.61301467    -0.81390
O1693       O  0.78953775  0.13108009  0.57375059    -0.81440
O1694       O  0.81968378  0.30673279  0.63637889    -0.81410
O1695       O  0.76417295  0.18328744  0.65722707    -0.81370
O1696       O  0.85336612  0.25236290  0.56253785    -0.81440
Co1697     Co  0.76231232  0.26826377  0.62180354     1.51530
Co1698     Co  0.77683435  0.17130855  0.58522490     1.51690
Co1699     Co  0.81117246  0.26455532  0.58306019     1.51570
Co1700     Co  0.72413109  0.16206223  0.62714976     1.51470
O1701       O  0.76559649  0.21515061  0.60316017    -1.43330
C1702       C  0.76207482  0.21348873  0.67077226     1.08220
C1703       C  0.86699402  0.23014829  0.57475250     1.08310
C1704       C  0.85248123  0.30211079  0.63233784     1.08240
C1705       C  0.76861517  0.10396168  0.59240636     1.08220
O1706       O  0.76703542  0.30515089  0.84928009    -0.81400
O1707       O  0.70355236  0.11978921  0.82189683    -0.81420
O1708       O  0.80078436  0.26128406  0.80047242    -0.81430
O1709       O  0.68410453  0.17859502  0.89420811    -0.81370
O1710       O  0.78270590  0.19097896  0.79568776    -0.81500
O1711       O  0.70246887  0.24128310  0.87379523    -0.81410
O1712       O  0.68209643  0.15061675  0.84740012    -0.81400
O1713       O  0.79109721  0.28747179  0.81289163    -0.81440
C1714       C  0.77337318  0.30802919  0.82390211     1.08290
C1715       C  0.67201164  0.11570483  0.83735724     1.08180
C1716       C  0.79202339  0.22780589  0.78539350     1.08310
C1717       C  0.67379659  0.20593798  0.88379152     1.08190
O1718       O  0.75618447  0.22972381  0.91141758    -0.81400
O1719       O  0.83040392  0.19682972  0.84658187    -0.81480
O1720       O  0.86010523  0.32333308  0.84463674    -0.81410
O1721       O  0.74115419  0.10670140  0.85685606    -0.81390
O1722       O  0.78675170  0.13063919  0.82034051    -0.81440
O1723       O  0.82791242  0.28907445  0.88287469    -0.81410
O1724       O  0.76324074  0.17069191  0.90449170    -0.81370
O1725       O  0.85721444  0.25508943  0.82199585    -0.81440
Co1726     Co  0.76312035  0.26148170  0.87701784     1.51530
Co1727     Co  0.76944958  0.16770159  0.83327023     1.51690
Co1728     Co  0.81242736  0.26399708  0.84143398     1.51570
Co1729     Co  0.72200050  0.15616964  0.87455723     1.51470
O1730       O  0.75632099  0.21129634  0.84989232    -1.43330
C1731       C  0.76505610  0.20076193  0.91995010     1.08220
C1732       C  0.86192682  0.22513127  0.83241136     1.08310
C1733       C  0.85837318  0.32264438  0.87049053     1.08240
C1734       C  0.76266649  0.10006464  0.83587839     1.08220
O1735       O  0.10565860  0.30305003  0.97446260    -0.81400
O1736       O  0.19946777  0.24570761  0.49798014    -0.81420
O1737       O  0.16754424  0.32921265  0.51389711    -0.81430
O1738       O  0.08986630  0.16835751  0.95960499    -0.81370
O1739       O  0.20921757  0.30557561  0.52814831    -0.81500
O1740       O  0.10319931  0.23560876  0.94850998    -0.81410
O1741       O  0.16102541  0.18020688  0.98779944    -0.81400
O1742       O  0.09167523  0.31875798  0.51501903    -0.81440
C1743       C  0.09731268  0.32734592  0.98957085     1.08290
C1744       C  0.19843066  0.21072558  0.99275826     1.08180
C1745       C  0.20512681  0.33446627  0.51539994     1.08310
C1746       C  0.10061841  0.19964993  0.94190618     1.08190
O1747       O  0.02378296  0.17530619  0.97748986    -0.81400
O1748       O  0.13668611  0.24598007  0.56635715    -0.81480
O1749       O  0.05675045  0.23484887  0.54523036    -0.81410
O1750       O  0.08827701  0.12067036  0.50882910    -0.81390
O1751       O  0.13404733  0.17219173  0.53729194    -0.81440
O1752       O  0.02970868  0.24366674  0.50767810    -0.81410
O1753       O  0.04178373  0.16030383  0.01528888    -0.81370
O1754       O  0.12643265  0.30479322  0.56627907    -0.81440
Co1755     Co  0.06925810  0.23977644  0.97848960     1.51530
Co1756     Co  0.16424292  0.24193358  0.52997058     1.51690
Co1757     Co  0.11477388  0.27954079  0.53065556     1.51570
Co1758     Co  0.10195401  0.17751304  0.00064064     1.51470
O1759       O  0.11737371  0.24067450  0.50231480    -1.43330
C1760       C  0.01250456  0.15119642  0.99858477     1.08220
C1761       C  0.13312042  0.27658044  0.57916022     1.08310
C1762       C  0.02582650  0.23563100  0.53310435     1.08240
C1763       C  0.10958384  0.13104136  0.53051774     1.08220
O1764       O  0.03339715  0.25730929  0.72762355    -0.81400
O1765       O  0.20466431  0.25781609  0.74829096    -0.81420
O1766       O  0.16725976  0.31264184  0.75879323    -0.81430
O1767       O  0.11306301  0.19688691  0.70129342    -0.81370
O1768       O  0.19960808  0.30353701  0.79142879    -0.81500
O1769       O  0.10665839  0.25520862  0.71086534    -0.81410
O1770       O  0.17805278  0.19238925  0.73372140    -0.81400
O1771       O  0.09580094  0.30728523  0.74302365    -0.81440
C1772       C  0.06329528  0.29676071  0.72759299     1.08290
C1773       C  0.21171130  0.22931058  0.73778807     1.08180
C1774       C  0.19949132  0.32842811  0.77286606     1.08310
C1775       C  0.11337359  0.23208308  0.69377313     1.08190
O1776       O  0.02415874  0.17674826  0.72452336    -0.81400
O1777       O  0.13989071  0.21788434  0.81640015    -0.81480
O1778       O  0.05422971  0.26319205  0.79555529    -0.81410
O1779       O  0.10244199  0.14198304  0.77353322    -0.81390
O1780       O  0.16878255  0.17662048  0.78427146    -0.81440
O1781       O  0.01967657  0.20488331  0.77299385    -0.81410
O1782       O  0.04734973  0.13643890  0.74300548    -0.81370
O1783       O  0.12520272  0.27263174  0.81662561    -0.81440
Co1784     Co  0.06580469  0.23142986  0.74321383     1.51530
Co1785     Co  0.17137092  0.23775897  0.78259552     1.51690
Co1786     Co  0.11131520  0.28258918  0.77719542     1.51570
Co1787     Co  0.11097635  0.17258607  0.73907080     1.51470
O1788       O  0.11111119  0.22295952  0.76333196    -1.43330
C1789       C  0.01604320  0.14035070  0.73480417     1.08220
C1790       C  0.12680025  0.24065758  0.82879203     1.08310
C1791       C  0.01933332  0.22927885  0.79161030     1.08240
C1792       C  0.13333117  0.14072114  0.78406168     1.08220
O1793       O  0.87181455  0.90665449  0.97759917    -0.81400
O1794       O  0.77202752  0.97555182  0.99285030    -0.81420
O1795       O  0.78653820  0.85969217  0.93710386    -0.81430
O1796       O  0.81453858  0.96679518  0.52746511    -0.81370
O1797       O  0.79570815  0.92908206  0.93892226    -0.81500
O1798       O  0.86205436  0.96448621  0.49985692    -0.81410
O1799       O  0.72635820  0.94196709  0.02781450    -0.81400
O1800       O  0.83590747  0.83718144  0.97093031    -0.81440
C1801       C  0.87169585  0.87263167  0.96998489     1.08290
C1802       C  0.74941203  0.97721687  0.01493466     1.08180
C1803       C  0.79620808  0.89716651  0.92558255     1.08310
C1804       C  0.85136811  0.98683116  0.51424306     1.08190
O1805       O  0.81600654  0.90556576  0.54878163    -0.81400
O1806       O  0.71725677  0.85737020  0.94864698    -0.81480
O1807       O  0.76603898  0.80120149  0.01156987    -0.81410
O1808       O  0.69282321  0.88504731  0.49154968    -0.81390
O1809       O  0.71750300  0.93097035  0.95546422    -0.81440
O1810       O  0.83177857  0.84487383  0.52534579    -0.81410
O1811       O  0.74404638  0.87779504  0.54396957    -0.81370
O1812       O  0.71428627  0.81487657  0.98008989    -0.81440
Co1813     Co  0.84253063  0.90521877  0.51177826     1.51530
Co1814     Co  0.75457488  0.91374000  0.97101325     1.51690
Co1815     Co  0.77523983  0.83086206  0.97549591     1.51570
Co1816     Co  0.75544364  0.91510992  0.51123658     1.51470
O1817       O  0.78752590  0.88824717  0.99189344    -1.43330
C1818       C  0.77675345  0.88757081  0.55864418     1.08220
C1819       C  0.69895647  0.81911692  0.95884131     1.08310
C1820       C  0.79674951  0.80820374  0.52712816     1.08240
C1821       C  0.68524804  0.90490011  0.97073113     1.08220
O1822       O  0.87392352  0.91327260  0.71884117    -0.81400
O1823       O  0.77684758  0.97140718  0.73705254    -0.81420
O1824       O  0.78653532  0.85083756  0.68611708    -0.81430
O1825       O  0.81910654  0.96590281  0.77367757    -0.81370
O1826       O  0.79671354  0.92002573  0.68700243    -0.81500
O1827       O  0.85659455  0.96548619  0.73963339    -0.81410
O1828       O  0.73271187  0.94464105  0.77382739    -0.81400
O1829       O  0.84713193  0.84343894  0.71734396    -0.81440
C1830       C  0.87905339  0.88145331  0.71274626     1.08290
C1831       C  0.75688852  0.97742561  0.75892313     1.08180
C1832       C  0.79377465  0.88661086  0.67394282     1.08310
C1833       C  0.85188938  0.98706275  0.75749647     1.08190
O1834       O  0.82585851  0.90899628  0.79435317    -0.81400
O1835       O  0.71746865  0.84729068  0.70016430    -0.81480
O1836       O  0.78351145  0.80574332  0.76115980    -0.81410
O1837       O  0.69589591  0.88147148  0.74000392    -0.81390
O1838       O  0.72071085  0.92456641  0.70290559    -0.81440
O1839       O  0.85020662  0.85768225  0.76873975    -0.81410
O1840       O  0.75307126  0.88269791  0.79417122    -0.81370
O1841       O  0.71915905  0.80067545  0.72844880    -0.81440
Co1842     Co  0.84906751  0.91130362  0.75477358     1.51530
Co1843     Co  0.75675518  0.90705414  0.71908863     1.51690
Co1844     Co  0.78336760  0.82779146  0.72422421     1.51570
Co1845     Co  0.75946391  0.91383883  0.75904075     1.51470
O1846       O  0.78985492  0.88400214  0.74048049    -1.43330
C1847       C  0.78819375  0.89344138  0.80698182     1.08220
C1848       C  0.70014278  0.80837499  0.70973565     1.08310
C1849       C  0.81742464  0.82123308  0.77523080     1.08240
C1850       C  0.68807053  0.89850897  0.71775215     1.08220
O1851       O  0.33276977  0.48251939  0.66187778    -0.81400
O1852       O  0.51447674  0.64950884  0.67977460    -0.81420
O1853       O  0.41197616  0.61267040  0.70618367    -0.81430
O1854       O  0.46369780  0.58976219  0.62731149    -0.81370
O1855       O  0.47294048  0.63278959  0.72682647    -0.81500
O1856       O  0.40259087  0.52937420  0.63034861    -0.81410
O1857       O  0.54441424  0.62764731  0.64993540    -0.81400
O1858       O  0.36114867  0.55137377  0.67234182    -0.81440
C1859       C  0.32717629  0.51548915  0.66628557     1.08290
C1860       C  0.54689020  0.65861942  0.66490591     1.08180
C1861       C  0.44443417  0.64175029  0.71771641     1.08310
C1862       C  0.43180703  0.56079417  0.61609485     1.08190
O1863       O  0.40384238  0.46379316  0.66538485    -0.81400
O1864       O  0.49245169  0.56196334  0.73676277    -0.81480
O1865       O  0.34541530  0.52491284  0.72525811    -0.81410
O1866       O  0.51744877  0.53578122  0.66872996    -0.81390
O1867       O  0.55615502  0.59374977  0.69045399    -0.81440
O1868       O  0.37144442  0.48327336  0.70878947    -0.81410
O1869       O  0.45474592  0.49883372  0.63390202    -0.81370
O1870       O  0.42525834  0.55081234  0.73828784    -0.81440
Co1871     Co  0.39344757  0.51377332  0.67100410     1.51530
Co1872     Co  0.50484759  0.60466362  0.70678954     1.51690
Co1873     Co  0.39945304  0.55128136  0.70316194     1.51570
Co1874     Co  0.49155185  0.56304643  0.64720045     1.51470
O1875       O  0.45520781  0.56079978  0.68178474    -1.43330
C1876       C  0.42737285  0.46276271  0.64597101     1.08220
C1877       C  0.45712058  0.55160574  0.75007047     1.08310
C1878       C  0.34262605  0.48694157  0.72394101     1.08240
C1879       C  0.55452456  0.56477543  0.67366568     1.08220
O1880       O  0.37440441  0.57007151  0.92023303    -0.81400
O1881       O  0.53113676  0.66002761  0.93180616    -0.81420
O1882       O  0.43673967  0.63158585  0.94264026    -0.81430
O1883       O  0.47015149  0.59661695  0.87603605    -0.81370
O1884       O  0.48213764  0.64869868  0.97443981    -0.81500
O1885       O  0.40667264  0.53616501  0.88047265    -0.81410
O1886       O  0.55340330  0.63166975  0.90028921    -0.81400
O1887       O  0.35993542  0.56652000  0.96400399    -0.81440
C1888       C  0.35262619  0.57456806  0.94054141     1.08290
C1889       C  0.55980341  0.66423170  0.91482234     1.08180
C1890       C  0.46029069  0.65941494  0.95910241     1.08310
C1891       C  0.43663066  0.56698738  0.86547259     1.08190
O1892       O  0.42178040  0.48354737  0.92244788    -0.81400
O1893       O  0.48558850  0.56736534  0.98834159    -0.81480
O1894       O  0.38001553  0.50162633  0.96132766    -0.81410
O1895       O  0.51992245  0.54101691  0.91982191    -0.81390
O1896       O  0.55542834  0.59313770  0.94753285    -0.81440
O1897       O  0.34311711  0.48173513  0.92420445    -0.81410
O1898       O  0.45955154  0.50990212  0.88494073    -0.81370
O1899       O  0.42726306  0.57543463  0.48928352    -0.81440
Co1900     Co  0.40271819  0.52947700  0.92203951     1.51530
Co1901     Co  0.51025106  0.61305057  0.95913764     1.51690
Co1902     Co  0.41186064  0.56777868  0.95104634     1.51570
Co1903     Co  0.49838602  0.57111913  0.89733619     1.51470
O1904       O  0.46481660  0.57318359  0.93176930    -1.43330
C1905       C  0.43778381  0.47761879  0.90070726     1.08220
C1906       C  0.45151561  0.56351574  0.50082085     1.08310
C1907       C  0.34525478  0.47444674  0.94936985     1.08240
C1908       C  0.55446830  0.56482827  0.93063244     1.08220
C1909       C  0.45201990  0.54709330  0.78029594    -0.07390
C1910       C  0.41061234  0.53729360  0.79195381    -0.18510
C1911       C  0.40435228  0.54409922  0.81927361     0.09810
C1912       C  0.44020402  0.56095313  0.83600518    -0.07310
C1913       C  0.48116858  0.56842562  0.82499627    -0.18550
C1914       C  0.48729101  0.56103712  0.79765485     0.09840
S1915       S  0.35050723  0.53309227  0.83102066    -0.33510
S1916       S  0.54083452  0.57078839  0.78639909    -0.33520
H1917       H  0.52494798  0.53271867  0.77072902     0.27850
H1918       H  0.36465270  0.56676870  0.85010333     0.27850
H1919       H  0.38309167  0.52725236  0.77923931     0.18440
H1920       H  0.50874702  0.57937593  0.83798789     0.18450
C1921       C  0.44310000  0.55276443  0.52998534    -0.07390
C1922       C  0.47907481  0.56324215  0.54565361    -0.18510
C1923       C  0.47601947  0.56571311  0.57370734     0.09810
C1924       C  0.43553838  0.55699756  0.58658598    -0.07310
C1925       C  0.39846059  0.54224579  0.57123267    -0.18550
C1926       C  0.40166572  0.54007346  0.54296275     0.09840
S1927       S  0.52459284  0.57991950  0.59233360    -0.33510
S1928       S  0.35256836  0.52106746  0.52403303    -0.33520
H1929       H  0.32390300  0.51654371  0.54602891     0.27850
H1930       H  0.55293717  0.58393399  0.57026701     0.27850
H1931       H  0.51041956  0.57219046  0.53573438     0.18440
H1932       H  0.36735060  0.53363260  0.58137839     0.18450
C1933       C  0.66033033  0.77131834  0.69771311    -0.07390
C1934       C  0.65431541  0.76944214  0.66937341    -0.18510
C1935       C  0.61945858  0.73273647  0.65726654     0.09810
C1936       C  0.58898383  0.69688761  0.67375157    -0.07310
C1937       C  0.59522604  0.69948411  0.70198301    -0.18550
C1938       C  0.62949345  0.73560779  0.71394750     0.09840
S1939       S  0.61496266  0.73471548  0.62109336    -0.33510
S1940       S  0.63035704  0.73481095  0.75049058    -0.33520
H1941       H  0.64362934  0.77980543  0.75312549     0.27850
H1942       H  0.59296812  0.68915102  0.61752190     0.27850
H1943       H  0.67745659  0.79639397  0.65643694     0.18440
H1944       H  0.57216813  0.67307710  0.71529874     0.18450
C1945       C  0.78758373  0.89229274  0.83747425    -0.07390
C1946       C  0.80982085  0.87332763  0.85062964    -0.18510
C1947       C  0.81486377  0.87570688  0.87893003     0.09810
C1948       C  0.79916647  0.89952645  0.89502281    -0.07310
C1949       C  0.77813572  0.91967694  0.88166008    -0.18550
C1950       C  0.77140306  0.91552258  0.85356733     0.09840
S1951       S  0.84225330  0.84797182  0.89300311    -0.33510
S1952       S  0.74288785  0.94178647  0.83936601    -0.33520
H1953       H  0.71084231  0.90296221  0.82813456     0.27850
H1954       H  0.86236813  0.87898383  0.91316952     0.27850
H1955       H  0.82376015  0.85664547  0.83871492     0.18440
H1956       H  0.76469708  0.93706622  0.89341591     0.18450
C1957       C  0.77162703  0.88350956  0.58831081    -0.07390
C1958       C  0.76850617  0.84627765  0.60108464    -0.18510
C1959       C  0.77634838  0.84619765  0.62870144     0.09810
C1960       C  0.78942601  0.88528420  0.64396443    -0.07310
C1961       C  0.79045625  0.92178829  0.63097600    -0.18550
C1962       C  0.78033385  0.92055353  0.60372832     0.09840
S1963       S  0.76693678  0.79427164  0.64271026    -0.33510
S1964       S  0.77603211  0.96538969  0.58896322    -0.33520
H1965       H  0.78608018  0.99164655  0.61208085     0.27850
H1966       H  0.80902222  0.81207379  0.65298316     0.27850
H1967       H  0.76058059  0.81729886  0.58931875     0.18440
H1968       H  0.79773629  0.95096141  0.64236920     0.18450
C1969       C  0.66527261  0.77918518  0.94536849    -0.07390
C1970       C  0.65088577  0.78171884  0.91930172    -0.18510
C1971       C  0.61932229  0.74374020  0.90651600     0.09810
C1972       C  0.60325024  0.70208965  0.91936267    -0.07310
C1973       C  0.61942947  0.69996485  0.94455904    -0.18550
C1974       C  0.64837306  0.73705597  0.95796425     0.09840
S1975       S  0.59904034  0.75060659  0.87478926    -0.33510
S1976       S  0.65792913  0.72702332  0.99240248    -0.33520
H1977       H  0.64536326  0.75689344  0.00341070     0.27850
H1978       H  0.58103459  0.70650216  0.86713628     0.27850
H1979       H  0.66321301  0.81342725  0.90920176     0.18440
H1980       H  0.60521762  0.66923602  0.95584619     0.18450
C1981       C  0.30648507  0.44711752  0.73780000    -0.07390
C1982       C  0.29735642  0.44528236  0.76607000    -0.18510
C1983       C  0.26401258  0.40675313  0.77907564     0.09810
C1984       C  0.23682114  0.37074330  0.76315831    -0.07310
C1985       C  0.24338840  0.37491840  0.73492243    -0.18550
C1986       C  0.27950989  0.40992426  0.72261205     0.09840
S1987       S  0.25690220  0.40640778  0.81542434    -0.33510
S1988       S  0.29042120  0.40114795  0.68805307    -0.33520
H1989       H  0.33074448  0.40387704  0.69381900     0.27850
H1990       H  0.21212827  0.37607073  0.81667413     0.27850
H1991       H  0.31643036  0.47330404  0.77824550     0.18440
H1992       H  0.22277119  0.34779002  0.72225877     0.18450
C1993       C  0.88730233  0.03298149  0.75887854    -0.07390
C1994       C  0.89160298  0.06175845  0.73727277    -0.18510
C1995       C  0.93258366  0.09655217  0.72841498     0.09810
C1996       C  0.97080473  0.10344223  0.74139195    -0.07310
C1997       C  0.96589089  0.07516936  0.76349899    -0.18550
C1998       C  0.92514043  0.04098924  0.77241789     0.09840
S1999       S  0.93438137  0.12810138  0.69899315    -0.33510
S2000       S  0.92358459  0.00673700  0.80040157    -0.33520
H2001       H  0.88102972  0.99606537  0.80962132     0.27850
H2002       H  0.97020138  0.12586546  0.68673045     0.27850
H2003       H  0.86328982  0.05464802  0.72561413     0.18440
H2004       H  0.99397311  0.08049593  0.77479245     0.18450
C2005       C  0.24228683  0.37163582  0.49999980    -0.07390
C2006       C  0.23219568  0.38926235  0.97724390    -0.18510
C2007       C  0.26464182  0.42170599  0.96022078     0.09810
C2008       C  0.30923210  0.43713438  0.96525784    -0.07310
C2009       C  0.31952528  0.41949178  0.98793422    -0.18550
C2010       C  0.28689041  0.38740511  0.50530114     0.09840
S2011       S  0.24655201  0.44363586  0.93337866    -0.33510
S2012       S  0.30447270  0.36922760  0.53428481    -0.33520
H2013       H  0.27200627  0.36877953  0.55217425     0.27850
H2014       H  0.27394259  0.48738865  0.94033888     0.27850
H2015       H  0.19839987  0.37762401  0.97248543     0.18440
H2016       H  0.35343627  0.43144418  0.99253537     0.18450
C2017       C  0.10768335  0.19696970  0.91250081    -0.07390
C2018       C  0.07145772  0.18577681  0.89645487    -0.18510
C2019       C  0.07637035  0.20127313  0.86949407     0.09810
C2020       C  0.11835571  0.23050077  0.85829206    -0.07310
C2021       C  0.15461390  0.23953305  0.87378896    -0.18550
C2022       C  0.14982953  0.22352085  0.90051914     0.09840
S2023       S  0.02769012  0.18256278  0.85062213    -0.33510
S2024       S  0.19912009  0.23878669  0.91842555    -0.33520
H2025       H  0.18365141  0.24490324  0.94375284     0.27850
H2026       H  0.04653100  0.17878271  0.82581766     0.27850
H2027       H  0.03885550  0.16678353  0.90549531     0.18440
H2028       H  0.18720281  0.25913619  0.86485142     0.18450
C2029       C  0.13282010  0.27436901  0.60922052    -0.07390
C2030       C  0.09512195  0.26749632  0.62395008    -0.18510
C2031       C  0.08775612  0.25243436  0.65101920     0.09810
C2032       C  0.11957529  0.24598193  0.66456214    -0.07310
C2033       C  0.15811618  0.25448069  0.65006832    -0.18550
C2034       C  0.16501298  0.26850799  0.62269487     0.09840
S2035       S  0.03458414  0.23650365  0.66593886    -0.33510
S2036       S  0.21549240  0.27797074  0.60582644    -0.33520
H2037       H  0.21724191  0.30918740  0.58689397     0.27850
H2038       H  0.02944658  0.19585601  0.67484696     0.27850
H2039       H  0.06950780  0.27013511  0.61364918     0.18440
H2040       H  0.18300460  0.25021612  0.66010548     0.18450
C2041       C  0.88461962  0.03460953  0.51481182    -0.07390
C2042       C  0.89367689  0.05869887  0.99021297    -0.18510
C2043       C  0.93401402  0.09662608  0.98439012     0.09810
C2044       C  0.96702621  0.11266861  0.00381702    -0.07310
C2045       C  0.95669424  0.08990984  0.52908323    -0.18550
C2046       C  0.91662441  0.05144903  0.53464608     0.09840
S2047       S  0.94222123  0.12030224  0.95079577    -0.33510
S2048       S  0.91005189  0.02313118  0.56653731    -0.33520
H2049       H  0.86436070  0.00136774  0.56742305     0.27850
H2050       H  0.97931677  0.11533200  0.94484877     0.27850
H2051       H  0.87036381  0.04558676  0.97430603     0.18440
H2052       H  0.98078235  0.10124393  0.54450086     0.18450
C2053       C  0.75419754  0.05894247  0.82187382    -0.07390
C2054       C  0.72771044  0.05000970  0.79896580    -0.18510
C2055       C  0.73240970  0.02950590  0.77550925     0.09810
C2056       C  0.76665140  0.01930500  0.77266314    -0.07310
C2057       C  0.79610816  0.03237811  0.79417360    -0.18550
C2058       C  0.78943032  0.04998844  0.81852797     0.09840
S2059       S  0.69267933  0.01610034  0.74975262    -0.33510
S2060       S  0.82978599  0.06449301  0.84395109    -0.33520
H2061       H  0.80349192  0.06703136  0.86537838     0.27850
H2062       H  0.71795337  0.01092998  0.72869248     0.27850
H2063       H  0.70490099  0.06242894  0.79785313     0.18440
H2064       H  0.82389646  0.02716367  0.79336882     0.18450
C2065       C  0.90262757  0.22305716  0.82770113    -0.07390
C2066       C  0.90043888  0.18525491  0.81631872    -0.18510
C2067       C  0.93807843  0.18458978  0.80639164     0.09810
C2068       C  0.97909122  0.22286947  0.80704119    -0.07310
C2069       C  0.98118330  0.25956475  0.82060502    -0.18550
C2070       C  0.94368791  0.25988759  0.83100918     0.09840
S2071       S  0.93072888  0.13366707  0.79361818    -0.33510
S2072       S  0.95021317  0.30837108  0.84809194    -0.33520
H2073       H  0.91535856  0.28520944  0.86697480     0.27850
H2074       H  0.97018208  0.13845281  0.80318380     0.27850
H2075       H  0.86903580  0.15649533  0.81413655     0.18440
H2076       H  0.01209582  0.28919373  0.82230805     0.18450
C2077       C  0.76148424  0.06021762  0.58292905    -0.07390
C2078       C  0.72093403  0.03369182  0.57153000    -0.18510
C2079       C  0.71728440  0.01201715  0.54666554     0.09810
C2080       C  0.75466468  0.01572653  0.53172437    -0.07310
C2081       C  0.79491456  0.04188683  0.54330053    -0.18550
C2082       C  0.79825769  0.06066770  0.56910413     0.09840
S2083       S  0.66332373  0.97794614  0.03488904    -0.33510
S2084       S  0.85171148  0.08891633  0.58280614    -0.33520
H2085       H  0.83701650  0.09311257  0.60900264     0.27850
H2086       H  0.66481298  0.01278504  0.01942267     0.27850
H2087       H  0.69199722  0.03235708  0.58091532     0.18440
H2088       H  0.82392328  0.04505300  0.53338333     0.18450
C2089       C  0.91125424  0.23565715  0.56782660    -0.07390
C2090       C  0.92334364  0.20509092  0.57778118    -0.18510
C2091       C  0.96206456  0.20546022  0.56844011     0.09810
C2092       C  0.98858147  0.23612317  0.54805038    -0.07310
C2093       C  0.97839905  0.26876133  0.53992589    -0.18550
C2094       C  0.94105000  0.26977982  0.54992202     0.09840
S2095       S  0.97453304  0.16483551  0.58204692    -0.33510
S2096       S  0.93326961  0.31568368  0.53960034    -0.33520
H2097       H  0.97260068  0.33936314  0.52428797     0.27850
H2098       H  0.01763897  0.19533359  0.58788736     0.27850
H2099       H  0.90224019  0.18041978  0.59262798     0.18440
H2100       H  0.99996596  0.29365631  0.52527113     0.18450
C2101       C  0.77106455  0.21504465  0.00606914    -0.07390
C2102       C  0.75026009  0.17260792  0.99508501    -0.18510
C2103       C  0.75002372  0.16609869  0.96705063     0.09810
C2104       C  0.77244640  0.20259710  0.94932190    -0.07310
C2105       C  0.79420443  0.24487241  0.96040234    -0.18550
C2106       C  0.79352055  0.25150256  0.98829314     0.09840
S2107       S  0.71856081  0.11102006  0.95520555    -0.33510
S2108       S  0.82285633  0.30707528  0.99974419    -0.33520
H2109       H  0.84550598  0.29705009  0.51906831     0.27850
H2110       H  0.69616675  0.12210392  0.93613988     0.27850
H2111       H  0.73350234  0.14413844  0.50853729     0.18440
H2112       H  0.81097358  0.27341720  0.94700019     0.18450
C2113       C  0.76865500  0.21647633  0.70045865    -0.07390
C2114       C  0.79839632  0.20455446  0.71103961    -0.18510
C2115       C  0.80945341  0.21145499  0.73829100     0.09810
C2116       C  0.79010894  0.23024929  0.75569267    -0.07310
C2117       C  0.76090829  0.24271957  0.74518416    -0.18550
C2118       C  0.74919733  0.23517084  0.71809328     0.09840
S2119       S  0.84897421  0.19612932  0.74967071    -0.33510
S2120       S  0.70669641  0.24706881  0.70810490    -0.33520
H2121       H  0.68424172  0.20770665  0.69403003     0.27850
H2122       H  0.86615741  0.22862442  0.76942615     0.27850
H2123       H  0.81416591  0.19099169  0.69782871     0.18440
H2124       H  0.74471237  0.25555453  0.75864674     0.18450
C2125       C  0.63909543  0.07713304  0.85592289    -0.07390
C2126       C  0.61826362  0.08979094  0.87651826    -0.18510
C2127       C  0.59861996  0.06591199  0.90032649     0.09810
C2128       C  0.59039468  0.02259812  0.90289373    -0.07310
C2129       C  0.60778991  0.00695409  0.88187334    -0.18550
C2130       C  0.63177824  0.03329934  0.85866161     0.09840
S2131       S  0.57872873  0.09048376  0.92548154    -0.33510
S2132       S  0.64115352  0.00588189  0.83068680    -0.33520
H2133       H  0.63726780  0.96939507  0.84550656     0.27850
H2134       H  0.57600533  0.06239641  0.94697282     0.27850
H2135       H  0.61759327  0.12014141  0.87452583     0.18440
H2136       H  0.59848205  0.97242986  0.88206539     0.18450
C2137       C  0.64189454  0.89806592  0.96120071    -0.07390
C2138       C  0.61078388  0.85752155  0.95100151    -0.18510
C2139       C  0.57698636  0.85434228  0.93420999     0.09810
C2140       C  0.57267620  0.89200820  0.92769924    -0.07310
C2141       C  0.60497787  0.93224715  0.93708841    -0.18550
C2142       C  0.63876965  0.93581287  0.95333126     0.09840
S2143       S  0.54531613  0.80295929  0.91813279    -0.33510
S2144       S  0.67894771  0.99003982  0.96335889    -0.33520
H2145       H  0.66550319  0.01412492  0.94689295     0.27850
H2146       H  0.52656224  0.81853002  0.89914240     0.27850
H2147       H  0.61454115  0.82871443  0.95448467     0.18440
H2148       H  0.60353570  0.96165941  0.93228573     0.18450
C2149       C  0.45033269  0.77901543  0.96241132    -0.07390
C2150       C  0.44558865  0.75695669  0.93808376    -0.18510
C2151       C  0.45092564  0.71966046  0.93628159     0.09810
C2152       C  0.46116586  0.70288853  0.95963592    -0.07310
C2153       C  0.46759586  0.72600996  0.98399988    -0.18550
C2154       C  0.46249726  0.76399332  0.98554173     0.09840
S2155       S  0.44590578  0.69656828  0.90296635    -0.33510
S2156       S  0.47089826  0.79129021  0.51746605    -0.33520
H2157       H  0.48706845  0.83347034  0.50583165     0.27850
H2158       H  0.48183905  0.68902523  0.90515877     0.27850
H2159       H  0.43800382  0.76932409  0.91996413     0.18440
H2160       H  0.47533802  0.71378105  0.50208453     0.18450
C2161       C  0.65328368  0.07346529  0.60732451    -0.07390
C2162       C  0.65879596  0.07569722  0.63597760    -0.18510
C2163       C  0.62813331  0.04472053  0.65480048     0.09810
C2164       C  0.58976210  0.00990123  0.64550222    -0.07310
C2165       C  0.58611335  0.00519078  0.61687976    -0.18550
C2166       C  0.61685597  0.03607840  0.59799335     0.09840
S2167       S  0.63728783  0.05456726  0.69040916    -0.33510
S2168       S  0.60519461  0.02801721  0.56251368    -0.33520
H2169       H  0.64700869  0.05804516  0.55217623     0.27850
H2170       H  0.61765040  0.00990213  0.69801935     0.27850
H2171       H  0.68590008  0.10323764  0.64457965     0.18440
H2172       H  0.55680963  0.97878495  0.60902095     0.18450
C2173       C  0.64473783  0.88665126  0.70511449    -0.07390
C2174       C  0.64641178  0.90074078  0.67763757    -0.18510
C2175       C  0.60983723  0.89759846  0.66442322     0.09810
C2176       C  0.56881387  0.87824028  0.67821156    -0.07310
C2177       C  0.56628709  0.86007901  0.70467562    -0.18550
C2178       C  0.60328189  0.86475352  0.71822378     0.09840
S2179       S  0.61682815  0.91976354  0.63029733    -0.33510
S2180       S  0.59558595  0.84414969  0.75256755    -0.33520
H2181       H  0.62976163  0.88301178  0.76240532     0.27850
H2182       H  0.66259539  0.93908822  0.62797373     0.27850
H2183       H  0.67723619  0.91579178  0.66621748     0.18440
H2184       H  0.53549390  0.84426967  0.71605908     0.18450
C2185       C  0.44827235  0.88873578  0.76967563    -0.07390
C2186       C  0.48183792  0.91419862  0.78669730    -0.18510
C2187       C  0.47477841  0.91032239  0.81447017     0.09810
C2188       C  0.43226555  0.88202521  0.82527451    -0.07310
C2189       C  0.39875121  0.85602195  0.80865700    -0.18550
C2190       C  0.40670244  0.85730329  0.78085849     0.09840
S2191       S  0.52088964  0.94188429  0.83524365    -0.33510
S2192       S  0.36463316  0.81560870  0.76122932    -0.33520
H2193       H  0.33215597  0.79638531  0.78203892     0.27850
H2194       H  0.54755343  0.97259068  0.81504175     0.27850
H2195       H  0.51397280  0.93685616  0.77827944     0.18440
H2196       H  0.36698509  0.83360186  0.81771744     0.18450
C2197       C  0.44422430  0.88946212  0.52061226    -0.07390
C2198       C  0.47954250  0.89882735  0.53675692    -0.18510
C2199       C  0.47308033  0.88658488  0.56383805     0.09810
C2200       C  0.43017835  0.86843157  0.57554111    -0.07310
C2201       C  0.39466639  0.85574704  0.55936273    -0.18550
C2202       C  0.40095801  0.86385238  0.53164669     0.09840
S2203       S  0.52064049  0.89677017  0.58263971    -0.33510
S2204       S  0.35300095  0.83971025  0.51184528    -0.33520
H2205       H  0.32251371  0.81387642  0.53245279     0.27850
H2206       H  0.55170230  0.91138590  0.56087208     0.27850
H2207       H  0.51252345  0.91550732  0.52810990     0.18440
H2208       H  0.36206752  0.84040700  0.56870482     0.18450
C2209       C  0.44581515  0.76674130  0.71209819    -0.07390
C2210       C  0.42806533  0.74010674  0.73568180    -0.18510
C2211       C  0.42963844  0.70049934  0.73917673     0.09810
C2212       C  0.44975601  0.68693741  0.71879625    -0.07310
C2213       C  0.46853569  0.71407864  0.69569148    -0.18550
C2214       C  0.46591403  0.75280790  0.69176142     0.09840
S2215       S  0.40299115  0.66741500  0.76919486    -0.33510
S2216       S  0.48387018  0.77886369  0.65872061    -0.33520
H2217       H  0.45310977  0.79376683  0.65709784     0.27850
H2218       H  0.42677644  0.64424484  0.76933160     0.27850
H2219       H  0.41150515  0.74950871  0.75114926     0.18440
H2220       H  0.48241327  0.70322283  0.67939202     0.18450
C2221       C  0.33107735  0.23691674  0.76347354    -0.07390
C2222       C  0.32490332  0.27365605  0.76400175    -0.18510
C2223       C  0.29159131  0.27489365  0.74982731     0.09810
C2224       C  0.25820096  0.23638519  0.73836960    -0.07310
C2225       C  0.26836904  0.20233681  0.73380273    -0.18550
C2226       C  0.30562928  0.20313909  0.74510943     0.09840
S2227       S  0.29719363  0.32802618  0.74454968    -0.33510
S2228       S  0.32001212  0.16242223  0.73353152    -0.33520
H2229       H  0.32851317  0.15187711  0.75892954     0.27850
H2230       H  0.27585054  0.31693138  0.71981038     0.27850
H2231       H  0.34662353  0.30201081  0.77540474     0.18440
H2232       H  0.24707852  0.17496581  0.72171386     0.18450
C2233       C  0.43154263  0.43396798  0.89341702    -0.07390
C2234       C  0.44257840  0.41068886  0.91198026    -0.18510
C2235       C  0.44116287  0.37092610  0.90506535     0.09810
C2236       C  0.42694688  0.35287483  0.87923504    -0.07310
C2237       C  0.41615858  0.37674500  0.86071293    -0.18550
C2238       C  0.41823020  0.41670624  0.86747478     0.09840
S2239       S  0.45657222  0.34453569  0.93044026    -0.33510
S2240       S  0.40207740  0.44330643  0.84233901    -0.33520
H2241       H  0.37983779  0.45673973  0.86109447     0.27850
H2242       H  0.41328100  0.31094579  0.93289314     0.27850
H2243       H  0.45348851  0.42417399  0.93179205     0.18440
H2244       H  0.40566829  0.36413535  0.84068222     0.18450
C2245       C  0.44204601  0.10789519  0.84621160    -0.07390
C2246       C  0.46751613  0.09171561  0.83261885    -0.18510
C2247       C  0.46790346  0.05287454  0.84134196     0.09810
C2248       C  0.44345908  0.02945497  0.86508461    -0.07310
C2249       C  0.41886533  0.04636898  0.87880714    -0.18550
C2250       C  0.41702190  0.08377346  0.86965859     0.09840
S2251       S  0.49955245  0.03478391  0.82083900    -0.33510
S2252       S  0.38311110  0.09897456  0.89041105    -0.33520
H2253       H  0.35707043  0.09887142  0.86958244     0.27850
H2254       H  0.46379656  0.99298726  0.81701421     0.27850
H2255       H  0.48603494  0.10847781  0.81430725     0.18440
H2256       H  0.39977668  0.02978620  0.89703494     0.18450
C2257       C  0.57241628  0.22258526  0.85565545    -0.07390
C2258       C  0.58231272  0.23024736  0.88322349    -0.18510
C2259       C  0.61045782  0.21759383  0.89506319     0.09810
C2260       C  0.62919349  0.19706030  0.87908253    -0.07310
C2261       C  0.61590744  0.18619285  0.85221532    -0.18550
C2262       C  0.58742896  0.19811274  0.84045946     0.09840
S2263       S  0.62522973  0.23275610  0.92959164    -0.33510
S2264       S  0.57289768  0.18383667  0.80566163    -0.33520
H2265       H  0.58687466  0.15200179  0.80363427     0.27850
H2266       H  0.64052942  0.20249136  0.93402466     0.27850
H2267       H  0.56945830  0.24779937  0.89533205     0.18440
H2268       H  0.63121372  0.17264437  0.83901159     0.18450
C2269       C  0.23433187  0.20353855  0.50390753    -0.07390
C2270       C  0.24752512  0.22031579  0.52997671    -0.18510
C2271       C  0.28049180  0.21685086  0.54337339     0.09810
C2272       C  0.30352721  0.19717098  0.53054068    -0.07310
C2273       C  0.29018367  0.17969801  0.50444051    -0.18550
C2274       C  0.25611500  0.18255048  0.49106779     0.09840
S2275       S  0.28970795  0.23698499  0.57744749    -0.33510
S2276       S  0.24445626  0.16098418  0.95733850    -0.33520
H2277       H  0.20609305  0.16359277  0.95404275     0.27850
H2278       H  0.28469201  0.19727046  0.58831494     0.27850
H2279       H  0.23092565  0.23569246  0.54067095     0.18440
H2280       H  0.30697519  0.16429532  0.49404180     0.18450
C2281       C  0.41962397  0.41823638  0.63647447    -0.07390
C2282       C  0.41948719  0.41024414  0.60859130    -0.18510
C2283       C  0.40866259  0.36821089  0.59874294     0.09810
C2284       C  0.39858139  0.33228321  0.61693032    -0.07310
C2285       C  0.39752254  0.33990837  0.64483219    -0.18550
C2286       C  0.40808453  0.38199125  0.65470687     0.09840
S2287       S  0.40849448  0.36277011  0.56234481    -0.33510
S2288       S  0.40943336  0.38773703  0.69104121    -0.33520
H2289       H  0.44584367  0.42999184  0.69047206     0.27850
H2290       H  0.37718530  0.31806773  0.56252481     0.27850
H2291       H  0.42693663  0.43680923  0.59421882     0.18440
H2292       H  0.39149924  0.31371806  0.65917340     0.18450
C2293       C  0.43508594  0.09126387  0.58379875    -0.07390
C2294       C  0.46694305  0.07939095  0.57491231    -0.18510
C2295       C  0.46931352  0.04291436  0.58597361     0.09810
C2296       C  0.44069293  0.01761936  0.60776918    -0.07310
C2297       C  0.40811220  0.02836883  0.61603673    -0.18550
C2298       C  0.40454749  0.06360831  0.60446671     0.09840
S2299       S  0.50991359  0.03079505  0.57135982    -0.33510
S2300       S  0.36001277  0.07011061  0.61824753    -0.33520
H2301       H  0.38666100  0.11454778  0.62310417     0.27850
H2302       H  0.47926800  0.98774930  0.56463424     0.27850
H2303       H  0.49044258  0.09859871  0.55887811     0.18440
H2304       H  0.38469822  0.00896811  0.63208092     0.18450
C2305       C  0.41071069  0.20960066  0.92686615    -0.07390
C2306       C  0.39160845  0.22811946  0.94457749    -0.18510
C2307       C  0.40672784  0.24188768  0.97121056     0.09810
C2308       C  0.44002788  0.23427540  0.98184256    -0.07310
C2309       C  0.45815589  0.21476455  0.96440183    -0.18550
C2310       C  0.44501128  0.20325474  0.93751358     0.09840
S2311       S  0.38575948  0.27267114  0.99023566    -0.33510
S2312       S  0.47334469  0.17998619  0.91779302    -0.33520
H2313       H  0.50906944  0.19230056  0.93450230     0.27850
H2314       H  0.35287575  0.26709306  0.47248779     0.27850
H2315       H  0.36624142  0.23415998  0.93694548     0.18440
H2316       H  0.48295093  0.20784344  0.97203524     0.18450
C2317       C  0.44138856  0.21946929  0.67792229    -0.07390
C2318       C  0.45414244  0.25654540  0.69438907    -0.18510
C2319       C  0.46085554  0.25567732  0.72234603     0.09810
C2320       C  0.45464782  0.21645182  0.73544177    -0.07310
C2321       C  0.44167653  0.17911974  0.71923068    -0.18550
C2322       C  0.43647952  0.18054382  0.69086124     0.09840
S2323       S  0.47612584  0.30620304  0.73999421    -0.33510
S2324       S  0.42732211  0.13257079  0.67238056    -0.33520
H2325       H  0.45428891  0.15614298  0.64986268     0.27850
H2326       H  0.44820888  0.28668078  0.76281842     0.27850
H2327       H  0.45852152  0.28702860  0.68546665     0.18440
H2328       H  0.43708330  0.14882756  0.72856539     0.18450
C2329       C  0.57091768  0.24380062  0.62704717    -0.07390
C2330       C  0.56169782  0.20047647  0.63393902    -0.18510
C2331       C  0.59513067  0.18965846  0.63791312     0.09810
C2332       C  0.63891737  0.22297959  0.63601311    -0.07310
C2333       C  0.64739956  0.26702782  0.63386542    -0.18550
C2334       C  0.61416828  0.27769969  0.62900287     0.09840
S2335       S  0.58028658  0.13253426  0.64158467    -0.33510
S2336       S  0.62988939  0.33419587  0.62141195    -0.33520
H2337       H  0.61550431  0.32539099  0.59473777     0.27850
H2338       H  0.60485461  0.13296023  0.61835320     0.27850
H2339       H  0.52855413  0.17393879  0.63290104     0.18440
H2340       H  0.68089867  0.29324622  0.63306861     0.18450
C2341       C  0.25631483  0.87580377  0.76573027    -0.07390
C2342       C  0.29126129  0.91606155  0.75605912    -0.18510
C2343       C  0.32364127  0.91812670  0.73776367     0.09810
C2344       C  0.32086411  0.87895978  0.72747113    -0.07310
C2345       C  0.28893193  0.83876579  0.73944254    -0.18550
C2346       C  0.25776213  0.83685757  0.75912620     0.09840
S2347       S  0.36754447  0.97199327  0.72867166    -0.33510
S2348       S  0.22399975  0.78475175  0.77620051    -0.33520
H2349       H  0.18455392  0.78580635  0.77597104     0.27850
H2350       H  0.40020099  0.95927594  0.72963289     0.27850
H2351       H  0.29262346  0.94670635  0.76213328     0.18440
H2352       H  0.28768642  0.80831933  0.73315433     0.18450
C2353       C  0.22558295  0.03857350  0.76988781    -0.07390
C2354       C  0.24927355  0.02751060  0.78809927    -0.18510
C2355       C  0.27391398  0.05581353  0.80796294     0.09810
C2356       C  0.27790739  0.09789670  0.80952847    -0.07310
C2357       C  0.25278829  0.10881636  0.79236821    -0.18550
C2358       C  0.22688551  0.07958328  0.77246501     0.09840
S2359       S  0.30460091  0.03894251  0.82885084    -0.33510
S2360       S  0.19863388  0.09693253  0.74984499    -0.33520
H2361       H  0.21341838  0.08431934  0.72633736     0.27850
H2362       H  0.29244434  0.05409176  0.85231035     0.27850
H2363       H  0.24906501  0.99625361  0.78705993     0.18440
H2364       H  0.25688857  0.14181026  0.79251808     0.18450
C2365       C  0.92424172  0.88954457  0.70664571    -0.07390
C2366       C  0.93264227  0.85420162  0.70920995    -0.18510
C2367       C  0.97455777  0.86138362  0.71421926     0.09810
C2368       C  0.00865947  0.90441724  0.71798490    -0.07310
C2369       C  0.00197773  0.93990051  0.71163397    -0.18550
C2370       C  0.96041034  0.93291376  0.70507989     0.09840
S2371       S  0.98276735  0.81435774  0.71595969    -0.33510
S2372       S  0.95567756  0.98097579  0.69639599    -0.33520
H2373       H  0.92154045  0.95879778  0.67856378     0.27850
H2374       H  0.01427827  0.83009845  0.69451319     0.27850
H2375       H  0.90610140  0.82078690  0.70913951     0.18440
H2376       H  0.02848563  0.97310815  0.71318767     0.18450
C2377       C  0.11636448  0.01214406  0.80684210    -0.07390
C2378       C  0.08432892  0.01632862  0.79289403    -0.18510
C2379       C  0.09077353  0.05725640  0.78412877     0.09810
C2380       C  0.12606144  0.09649965  0.79391603    -0.07310
C2381       C  0.15257781  0.09182899  0.81321892    -0.18550
C2382       C  0.14787331  0.04988492  0.81982886     0.09840
S2383       S  0.05822263  0.05638254  0.75608939    -0.33510
S2384       S  0.18195368  0.04607319  0.84509714    -0.33520
H2385       H  0.15354867  0.00173065  0.85201122     0.27850
H2386       H  0.02227709  0.01470860  0.76177268     0.27850
H2387       H  0.05832400  0.98733288  0.78421125     0.18440
H2388       H  0.17789797  0.12076805  0.82236933     0.18450
C2389       C  0.23813035  0.86881637  0.50901273    -0.07390
C2390       C  0.23362723  0.83373683  0.49240819    -0.18510
C2391       C  0.26630188  0.83717892  0.97395455     0.09810
C2392       C  0.30616835  0.87648804  0.97162880    -0.07310
C2393       C  0.31206056  0.91136821  0.98870943    -0.18550
C2394       C  0.27909327  0.90748115  0.50779917     0.09840
S2395       S  0.25388765  0.79045998  0.95293886    -0.33510
S2396       S  0.29273895  0.95115620  0.53130197    -0.33520
H2397       H  0.27001143  0.92321224  0.55359718     0.27850
H2398       H  0.26989035  0.81586577  0.92889503     0.27850
H2399       H  0.20346885  0.80296232  0.49292485     0.18440
H2400       H  0.34322996  0.94113913  0.98799869     0.18450
C2401       C  0.23097215  0.01842865  0.55410272    -0.07390
C2402       C  0.27138205  0.03724642  0.54120073    -0.18510
C2403       C  0.30593518  0.07377960  0.55175623     0.09810
C2404       C  0.29896614  0.09384191  0.57577849    -0.07310
C2405       C  0.25694189  0.07678422  0.58719170    -0.18550
C2406       C  0.22275347  0.03924465  0.57682814     0.09840
S2407       S  0.35707060  0.08952047  0.53331601    -0.33510
S2408       S  0.16890066  0.01926040  0.59288842    -0.33520
H2409       H  0.17875199  0.05510514  0.60984079     0.27850
H2410       H  0.33993281  0.07665108  0.50744996     0.27850
H2411       H  0.27633204  0.02177138  0.52338592     0.18440
H2412       H  0.25109048  0.09234191  0.60467009     0.18450
C2413       C  0.14041356  0.88126166  0.86751384    -0.07390
C2414       C  0.10226814  0.84942595  0.88082053    -0.18510
C2415       C  0.09457224  0.85009349  0.90866334     0.09810
C2416       C  0.12582663  0.88473844  0.92439520    -0.07310
C2417       C  0.16450388  0.91633829  0.91124762    -0.18550
C2418       C  0.17240572  0.91471247  0.88327831     0.09840
S2419       S  0.04375206  0.80552826  0.92252049    -0.33510
S2420       S  0.22412637  0.95625683  0.86946900    -0.33520
H2421       H  0.23464968  0.92576090  0.85718620     0.27850
H2422       H  0.03605725  0.77574643  0.90141818     0.27850
H2423       H  0.07743599  0.82373138  0.86921662     0.18440
H2424       H  0.18898814  0.94251882  0.92282763     0.18450
C2425       C  0.13246579  0.88538544  0.67354841    -0.07390
C2426       C  0.09944424  0.88635956  0.65879898    -0.18510
C2427       C  0.09531552  0.87678510  0.63155780     0.09810
C2428       C  0.12700239  0.86900780  0.61771699    -0.07310
C2429       C  0.16119129  0.86928300  0.63226692    -0.18550
C2430       C  0.16380676  0.87664120  0.66031430     0.09840
S2431       S  0.04697333  0.87239489  0.61652873    -0.33510
S2432       S  0.20666710  0.87335904  0.67790476    -0.33520
H2433       H  0.18444218  0.86003931  0.70330890     0.27850
H2434       H  0.03666067  0.83242143  0.60398437     0.27850
H2435       H  0.07505273  0.89268351  0.66901246     0.18440
H2436       H  0.18569093  0.86345107  0.62183241     0.18450
C2437       C  0.91450798  0.87427520  0.96609602    -0.07390
C2438       C  0.91719495  0.83658793  0.97285791    -0.18510
C2439       C  0.95628901  0.83973720  0.98120249     0.09810
C2440       C  0.99316279  0.88171500  0.98431864    -0.07310
C2441       C  0.99213491  0.91867195  0.47389627    -0.18550
C2442       C  0.95357532  0.91518251  0.96398795     0.09840
S2443       S  0.95666729  0.78873133  0.98692113    -0.33510
S2444       S  0.95587189  0.96464270  0.45042257    -0.33520
H2445       H  0.91988577  0.94285197  0.93390706     0.27850
H2446       H  0.99696143  0.80295398  0.97306840     0.27850
H2447       H  0.88812848  0.80475283  0.97343826     0.18440
H2448       H  0.02094770  0.95060118  0.47435279     0.18450
C2449       C  0.11399729  0.09589162  0.54400160    -0.07390
C2450       C  0.15415021  0.09800074  0.53799957    -0.18510
C2451       C  0.15611481  0.06051117  0.53049354     0.09810
C2452       C  0.11879113  0.01867227  0.53433721    -0.07310
C2453       C  0.08032930  0.01604869  0.54579059    -0.18550
C2454       C  0.07719880  0.05454334  0.54971382     0.09840
S2455       S  0.20517817  0.06961381  0.51206759    -0.33510
S2456       S  0.02494569  0.04938865  0.55964989    -0.33520
H2457       H  0.04124387  0.09353064  0.56696118     0.27850
H2458       H  0.18635537  0.06634118  0.48681564     0.27850
H2459       H  0.18244437  0.12950748  0.53361049     0.18440
H2460       H  0.05171658  0.98429884  0.54918465     0.18450
C2461       C  0.81770982  0.79635210  0.79964708    -0.07390
C2462       C  0.77743943  0.77057755  0.81274181    -0.18510
C2463       C  0.77112432  0.73669439  0.83042259     0.09810
C2464       C  0.80723046  0.73059726  0.83765398    -0.07310
C2465       C  0.84916789  0.76447036  0.83025912    -0.18550
C2466       C  0.85487458  0.79574866  0.80996236     0.09840
S2467       S  0.71509963  0.69509187  0.83639796    -0.33510
S2468       S  0.90941503  0.83035824  0.79638985    -0.33520
H2469       H  0.89801991  0.82041364  0.76921844     0.27850
H2470       H  0.69556471  0.70837634  0.81655329     0.27850
H2471       H  0.74956738  0.77385478  0.80672107     0.18440
H2472       H  0.87737554  0.76292996  0.83713957     0.18450
C2473       C  0.88739682  0.69804132  0.78348555    -0.07390
C2474       C  0.90416737  0.71516527  0.80903508    -0.18510
C2475       C  0.94867700  0.74378604  0.81268817     0.09810
C2476       C  0.97855686  0.75484885  0.79048582    -0.07310
C2477       C  0.96198916  0.73919389  0.76486947    -0.18550
C2478       C  0.91723618  0.71172744  0.76105478     0.09840
S2479       S  0.96546140  0.76323079  0.84639708    -0.33510
S2480       S  0.90048252  0.69117132  0.72758190    -0.33520
H2481       H  0.85624568  0.67935368  0.73234561     0.27850
H2482       H  0.00847510  0.77032415  0.84291425     0.27850
H2483       H  0.88331539  0.70185340  0.82705583     0.18440
H2484       H  0.98426071  0.74894558  0.74752926     0.18450
C2485       C  0.59417576  0.56964065  0.91573134    -0.07390
C2486       C  0.63128235  0.61040484  0.91634117    -0.18510
C2487       C  0.66346990  0.62460825  0.89563433     0.09810
C2488       C  0.65923644  0.59679948  0.87320816    -0.07310
C2489       C  0.62291498  0.55497377  0.87317604    -0.18550
C2490       C  0.59144704  0.54055758  0.89459455     0.09840
S2491       S  0.71171996  0.67710632  0.90022715    -0.33510
S2492       S  0.55023824  0.48363396  0.89464842    -0.33520
H2493       H  0.54267175  0.47993183  0.92298707     0.27850
H2494       H  0.69495689  0.69261455  0.92131698     0.27850
H2495       H  0.63474742  0.63173673  0.93297178     0.18440
H2496       H  0.62111743  0.53191634  0.85781076     0.18450
C2497       C  0.77842419  0.42400834  0.81217667    -0.07390
C2498       C  0.73765489  0.38887412  0.81973280    -0.18510
C2499       C  0.73074563  0.34613918  0.81771373     0.09810
C2500       C  0.76578442  0.33950301  0.80887611    -0.07310
C2501       C  0.80255368  0.37358637  0.79568646    -0.18550
C2502       C  0.80983272  0.41655662  0.79783690     0.09840
S2503       S  0.68004115  0.30085418  0.83040983    -0.33510
S2504       S  0.86210561  0.46013442  0.78576541    -0.33520
H2505       H  0.87007442  0.48510654  0.80937963     0.27850
H2506       H  0.65797968  0.32517309  0.83561186     0.27850
H2507       H  0.71271759  0.39510698  0.82917503     0.18440
H2508       H  0.82902050  0.36803638  0.78818913     0.18450
C2509       C  0.65135242  0.46208890  0.83791865    -0.07390
C2510       C  0.64173180  0.42967559  0.85779431    -0.18510
C2511       C  0.60436984  0.38839792  0.85723130     0.09810
C2512       C  0.57477113  0.37815246  0.83586197    -0.07310
C2513       C  0.58479093  0.41010138  0.81535291    -0.18550
C2514       C  0.62246800  0.45173301  0.81620684     0.09840
S2515       S  0.59794718  0.34777248  0.88272334    -0.33510
S2516       S  0.63207618  0.48972017  0.78873027    -0.33520
H2517       H  0.65046161  0.52685660  0.80503648     0.27850
H2518       H  0.63248589  0.37537551  0.89894131     0.27850
H2519       H  0.66548443  0.43570744  0.87288759     0.18440
H2520       H  0.56307179  0.40278295  0.79869387     0.18450
C2521       C  0.78061273  0.70042668  0.58238828    -0.07390
C2522       C  0.76460968  0.69360427  0.55587929    -0.18510
C2523       C  0.76966801  0.72748635  0.53820843     0.09810
C2524       C  0.79210324  0.77165589  0.54615882    -0.07310
C2525       C  0.81105854  0.77976687  0.57192946    -0.18550
C2526       C  0.80609572  0.74494414  0.58970646     0.09840
S2527       S  0.75278663  0.71189616  0.00393814    -0.33510
S2528       S  0.83805459  0.75913349  0.61954904    -0.33520
H2529       H  0.80990045  0.72081883  0.63458460     0.27850
H2530       H  0.79116165  0.74586272  0.99166398     0.27850
H2531       H  0.75293346  0.66227361  0.54666897     0.18440
H2532       H  0.83067486  0.81339619  0.57806267     0.18450
C2533       C  0.98350279  0.74398469  0.56459598    -0.07390
C2534       C  0.94738413  0.75016869  0.56050561    -0.18510
C2535       C  0.91195857  0.71892996  0.54674682     0.09810
C2536       C  0.91082711  0.67895758  0.53931137    -0.07310
C2537       C  0.94514400  0.67140145  0.54704146    -0.18550
C2538       C  0.97939590  0.70210285  0.56159773     0.09840
S2539       S  0.87209131  0.73435564  0.53681554    -0.33510
S2540       S  0.02160571  0.68952173  0.57122979    -0.33520
H2541       H  0.03911468  0.72289405  0.59046572     0.27850
H2542       H  0.86805505  0.71611632  0.51108342     0.27850
H2543       H  0.95048865  0.78257186  0.56311395     0.18440
H2544       H  0.94476263  0.64077308  0.54268475     0.18450
C2545       C  0.58996754  0.57170869  0.65200424    -0.07390
C2546       C  0.57756465  0.54136827  0.63047011    -0.18510
C2547       C  0.60393586  0.54787781  0.60681909     0.09810
C2548       C  0.64576910  0.58463841  0.60384287    -0.07310
C2549       C  0.65801789  0.61590090  0.62474588    -0.18550
C2550       C  0.63145784  0.60961475  0.64862671     0.09840
S2551       S  0.58252609  0.50734551  0.58080265    -0.33510
S2552       S  0.65438527  0.64938199  0.67480617    -0.33520
H2553       H  0.63670911  0.61833094  0.69628656     0.27850
H2554       H  0.61240044  0.53352281  0.56003307     0.27850
H2555       H  0.54598195  0.51213302  0.63147493     0.18440
H2556       H  0.69043605  0.64385788  0.62375380     0.18450
C2557       C  0.75476038  0.55474579  0.98182356    -0.07390
C2558       C  0.73145347  0.51427308  0.96933171    -0.18510
C2559       C  0.73346265  0.51162667  0.94102077     0.09810
C2560       C  0.76210657  0.54942026  0.92538564    -0.07310
C2561       C  0.78518395  0.58954704  0.93846870    -0.18550
C2562       C  0.78095131  0.59278673  0.96614493     0.09840
S2563       S  0.69680800  0.46058068  0.92621939    -0.33510
S2564       S  0.81060200  0.64598075  0.98127894    -0.33520
H2565       H  0.83588524  0.66937783  0.95817872     0.27850
H2566       H  0.67970415  0.48122960  0.90959539     0.27850
H2567       H  0.71124326  0.48502266  0.98144046     0.18440
H2568       H  0.80680423  0.61912468  0.92700242     0.18450
C2569       C  0.73594466  0.53193056  0.74208143    -0.07390
C2570       C  0.73494284  0.56703770  0.72908373    -0.18510
C2571       C  0.74420091  0.57413802  0.70155425     0.09810
C2572       C  0.74729651  0.54146856  0.68578103    -0.07310
C2573       C  0.74407730  0.50385555  0.69861579    -0.18550
C2574       C  0.73961198  0.49942104  0.72688488     0.09840
S2575       S  0.75762607  0.62838667  0.68896047    -0.33510
S2576       S  0.74110523  0.45331007  0.74276756    -0.33520
H2577       H  0.72305043  0.45647637  0.76807616     0.27850
H2578       H  0.79276367  0.63283001  0.67192154     0.27850
H2579       H  0.73442836  0.59311061  0.74097440     0.18440
H2580       H  0.74591784  0.47849808  0.68675542     0.18450
C2581       C  0.82016224  0.37470775  0.56224968    -0.07390
C2582       C  0.78850595  0.37351968  0.54514941    -0.18510
C2583       C  0.78884355  0.41225159  0.53738602     0.09810
C2584       C  0.82003406  0.45214592  0.54803673    -0.07310
C2585       C  0.85535196  0.45387101  0.56162635    -0.18550
C2586       C  0.85554449  0.41529966  0.56915807     0.09840
S2587       S  0.74822794  0.40899989  0.51467086    -0.33510
S2588       S  0.89847967  0.41996758  0.59049591    -0.33520
H2589       H  0.87046156  0.38715923  0.60919963     0.27850
H2590       H  0.76990413  0.45386217  0.50719714     0.27850
H2591       H  0.76267740  0.34231095  0.53864520     0.18440
H2592       H  0.87969416  0.48462985  0.56959574     0.18450
C2593       C  0.57114930  0.36703985  0.56860773    -0.07390
C2594       C  0.60926324  0.38843711  0.55251383    -0.18510
C2595       C  0.64276913  0.42880503  0.56018668     0.09810
C2596       C  0.64049166  0.44634737  0.58569569    -0.07310
C2597       C  0.60186991  0.42666239  0.60118850    -0.18550
C2598       C  0.56626228  0.38836584  0.59235171     0.09840
S2599       S  0.68796633  0.45708635  0.53655359    -0.33510
S2600       S  0.51675525  0.36738673  0.61315193    -0.33520
H2601       H  0.52666702  0.40649818  0.62677025     0.27850
H2602       H  0.69769688  0.49875712  0.54604388     0.27850
H2603       H  0.61264565  0.37407015  0.53368721     0.18440
H2604       H  0.60021294  0.44031272  0.62065251     0.18450
C2605       C  0.94466242  0.42417343  0.92316297    -0.07390
C2606       C  0.93135320  0.43468410  0.89896004    -0.18510
C2607       C  0.90488777  0.40278915  0.88095391     0.09810
C2608       C  0.88997684  0.35823528  0.88728797    -0.07310
C2609       C  0.90051960  0.34710070  0.91248746    -0.18550
C2610       C  0.92769306  0.37946912  0.93030848     0.09840
S2611       S  0.89110333  0.42135708  0.85046200    -0.33510
S2612       S  0.94070300  0.36187894  0.96145545    -0.33520
H2613       H  0.94956465  0.40002733  0.97583976     0.27850
H2614       H  0.84652721  0.39033374  0.85259081     0.27850
H2615       H  0.94206916  0.46802304  0.89341961     0.18440
H2616       H  0.88794485  0.31287083  0.91822892     0.18450
C2617       C  0.04857106  0.64823548  0.94854823    -0.07390
C2618       C  0.07522932  0.68975315  0.93652419    -0.18510
C2619       C  0.08743141  0.72716268  0.95137991     0.09810
C2620       C  0.06889565  0.72309245  0.97769184    -0.07310
C2621       C  0.03652405  0.68235689  0.48791884    -0.18550
C2622       C  0.02541398  0.64461958  0.97323931     0.09840
S2623       S  0.13019606  0.77797848  0.93659979    -0.33510
S2624       S  0.98257385  0.59340005  0.48719315    -0.33520
H2625       H  0.96977823  0.57377825  0.96180382     0.27850
H2626       H  0.14922993  0.79667910  0.96113294     0.27850
H2627       H  0.09160612  0.69312905  0.91690554     0.18440
H2628       H  0.01992142  0.67999654  0.50732070     0.18450
C2629       C  0.97718064  0.55692449  0.88161842    -0.07390
C2630       C  0.94003977  0.54607581  0.89850006    -0.18510
C2631       C  0.90810182  0.55629896  0.89100166     0.09810
C2632       C  0.91218614  0.57591933  0.86524299    -0.07310
C2633       C  0.95237701  0.59278528  0.85038234    -0.18550
C2634       C  0.98537038  0.58414846  0.85868506     0.09840
S2635       S  0.86243990  0.54105055  0.91467885    -0.33510
S2636       S  0.03688157  0.60948588  0.83982450    -0.33520
H2637       H  0.06235521  0.60985047  0.86140591     0.27850
H2638       H  0.86005946  0.57977624  0.90968076     0.27850
H2639       H  0.93493970  0.52795610  0.91742053     0.18440
H2640       H  0.95727032  0.61062298  0.83140206     0.18450
C2641       C  0.10316882  0.42756159  0.93667875    -0.07390
C2642       C  0.12589404  0.43931435  0.96105762    -0.18510
C2643       C  0.12139025  0.40765154  0.98047220     0.09810
C2644       C  0.09325568  0.36299882  0.97585040    -0.07310
C2645       C  0.06910665  0.35137977  0.95219352    -0.18550
C2646       C  0.07441255  0.38260352  0.93240284     0.09840
S2647       S  0.15532489  0.42569621  0.00934760    -0.33510
S2648       S  0.04615583  0.36194157  0.90143025    -0.33520
H2649       H  0.08371846  0.38624152  0.88463056     0.27850
H2650       H  0.12218409  0.39749599  0.52791417     0.27850
H2651       H  0.14789243  0.47346348  0.96504156     0.18440
H2652       H  0.04830809  0.31694486  0.94805705     0.18450
C2653       C  0.23612658  0.57869728  0.93666524    -0.07390
C2654       C  0.26356174  0.60154787  0.95740905    -0.18510
C2655       C  0.30488911  0.60528173  0.95801348     0.09810
C2656       C  0.31891732  0.58669288  0.93694801    -0.07310
C2657       C  0.29353251  0.56861788  0.91469955    -0.18550
C2658       C  0.25155304  0.56266598  0.91458461     0.09840
S2659       S  0.33730688  0.63293326  0.98645117    -0.33510
S2660       S  0.21901340  0.53305693  0.88623137    -0.33520
H2661       H  0.25124216  0.52859077  0.87081478     0.27850
H2662       H  0.37692510  0.64790647  0.97177964     0.27850
H2663       H  0.25223356  0.61521203  0.97355945     0.18440
H2664       H  0.30485401  0.55466318  0.89874626     0.18450
C2665       C  0.31570316  0.76436964  0.89347936    -0.07390
C2666       C  0.28239150  0.76266137  0.87718629    -0.18510
C2667       C  0.24450054  0.72283434  0.87238680     0.09810
C2668       C  0.23989517  0.68306022  0.88327538    -0.07310
C2669       C  0.27468453  0.68445723  0.89743578    -0.18550
C2670       C  0.31083020  0.72412618  0.90379380     0.09840
S2671       S  0.20314032  0.72506602  0.85258431    -0.33510
S2672       S  0.34392785  0.72078292  0.92959438    -0.33520
H2673       H  0.33113005  0.74401055  0.94783380     0.27850
H2674       H  0.18656287  0.68237811  0.84248419     0.27850
H2675       H  0.28498949  0.79282623  0.86893826     0.18440
H2676       H  0.27167281  0.65463395  0.90636415     0.18450
C2677       C  0.11080095  0.56082801  0.75899691    -0.07390
C2678       C  0.15095377  0.57495453  0.77086441    -0.18510
C2679       C  0.15279088  0.57358595  0.79888423     0.09810
C2680       C  0.11353410  0.55719703  0.81462277    -0.07310
C2681       C  0.07460078  0.54859254  0.80285222    -0.18550
C2682       C  0.07314431  0.55188107  0.77501611     0.09840
S2683       S  0.20442170  0.58693606  0.81303758    -0.33510
S2684       S  0.02296582  0.54331691  0.76022225    -0.33520
H2685       H  0.00012722  0.54111777  0.78474783     0.27850
H2686       H  0.20434007  0.62020167  0.82920874     0.27850
H2687       H  0.18018806  0.58409496  0.75837689     0.18440
H2688       H  0.04500079  0.53736726  0.81539397     0.18450
C2689       C  0.11718643  0.56343604  0.50580118    -0.07390
C2690       C  0.12425213  0.53150706  0.51858327    -0.18510
C2691       C  0.13509354  0.53542896  0.54580664     0.09810
C2692       C  0.13771356  0.57159707  0.56063535    -0.07310
C2693       C  0.13620000  0.60592056  0.54686229    -0.18550
C2694       C  0.12392985  0.60164909  0.52015789     0.09840
S2695       S  0.14355454  0.49252364  0.56037738    -0.33510
S2696       S  0.11248077  0.64355157  0.50643617    -0.33520
H2697       H  0.12151405  0.67020979  0.02931965     0.27850
H2698       H  0.17899633  0.52152933  0.57560714     0.27850
H2699       H  0.12112991  0.50336784  0.50738882     0.18440
H2700       H  0.13981259  0.63423409  0.55802593     0.18450
C2701       C  0.89294769  0.32977887  0.64650751    -0.07390
C2702       C  0.93162070  0.34271434  0.63138751    -0.18510
C2703       C  0.96890751  0.38123525  0.63710426     0.09810
C2704       C  0.96866255  0.40620075  0.66004335    -0.07310
C2705       C  0.93194490  0.38963017  0.67763379    -0.18550
C2706       C  0.89387937  0.35177998  0.67092820     0.09840
S2707       S  0.01380072  0.39985586  0.61219522    -0.33510
S2708       S  0.84741441  0.33360807  0.69389291    -0.33520
H2709       H  0.83630187  0.28996684  0.68904969     0.27850
H2710       H  0.00071837  0.35976213  0.59903716     0.27850
H2711       H  0.93122027  0.32586906  0.61284206     0.18440
H2712       H  0.93180291  0.40780704  0.69543756     0.18450
C2713       C  0.11286879  0.68088999  0.70097424    -0.07390
C2714       C  0.07294134  0.68179969  0.70109173    -0.18510
C2715       C  0.06857759  0.71700031  0.71173415     0.09810
C2716       C  0.10483385  0.75222000  0.72336083    -0.07310
C2717       C  0.14525217  0.75236233  0.72177365    -0.18550
C2718       C  0.14949606  0.71704601  0.71161501     0.09840
S2719       S  0.01725500  0.71690110  0.70854456    -0.33510
S2720       S  0.20265219  0.72074158  0.71314012    -0.33520
H2721       H  0.18646463  0.67964729  0.72646307     0.27850
H2722       H  0.99295716  0.67375273  0.69937195     0.27850
H2723       H  0.04497606  0.65515193  0.69214011     0.18440
H2724       H  0.17411378  0.78012768  0.72902360     0.18450
C2725       C  0.91095902  0.57351636  0.60365719    -0.07390
C2726       C  0.93694777  0.57208527  0.58148152    -0.18510
C2727       C  0.97189960  0.56299808  0.58497780     0.09810
C2728       C  0.98016665  0.55274599  0.61112225    -0.07310
C2729       C  0.95368349  0.55387032  0.63314231    -0.18550
C2730       C  0.92011782  0.56449717  0.62979618     0.09840
S2731       S  0.00473580  0.56525902  0.55551979    -0.33510
S2732       S  0.88893507  0.56452107  0.65976679    -0.33520
H2733       H  0.87553857  0.59368967  0.64925397     0.27850
H2734       H  0.04462182  0.58961729  0.56814809     0.27850
H2735       H  0.92852487  0.57559409  0.56108518     0.18440
H2736       H  0.95936858  0.54667051  0.65355476     0.18450
C2737       C  0.07161297  0.39772856  0.67168856    -0.07390
C2738       C  0.03778072  0.37838945  0.69204770    -0.18510
C2739       C  0.03337381  0.34468834  0.70960527     0.09810
C2740       C  0.06403480  0.32951623  0.70772755    -0.07310
C2741       C  0.09554623  0.34543967  0.68600040    -0.18550
C2742       C  0.09805442  0.37754995  0.66718081     0.09840
S2743       S  0.98939416  0.32456239  0.73508551    -0.33510
S2744       S  0.13243340  0.38801204  0.63717784    -0.33520
H2745       H  0.10875994  0.40187447  0.62102214     0.27850
H2746       H  0.01161691  0.31619798  0.75558340     0.27850
H2747       H  0.01607661  0.39188613  0.69601187     0.18440
H2748       H  0.11771562  0.33201634  0.68328570     0.18450
C2749       C  0.28257669  0.51106195  0.66966474    -0.07390
C2750       C  0.27269140  0.52718292  0.69354846    -0.18510
C2751       C  0.23036022  0.51938906  0.70045816     0.09810
C2752       C  0.19720029  0.50004746  0.68168566    -0.07310
C2753       C  0.20732445  0.48503487  0.65730937    -0.18550
C2754       C  0.24866579  0.48835405  0.65167708     0.09840
S2755       S  0.22207503  0.54043640  0.73216657    -0.33510
S2756       S  0.25731998  0.46772483  0.61983238    -0.33520
H2757       H  0.30163830  0.49885409  0.61610029     0.27850
H2758       H  0.17699071  0.51134206  0.73464241     0.27850
H2759       H  0.29805572  0.54658784  0.70714201     0.18440
H2760       H  0.18448956  0.47527036  0.64120112     0.18450
C2761       C  0.23449709  0.69220175  0.62749483    -0.07390
C2762       C  0.27228457  0.68878065  0.63273928    -0.18510
C2763       C  0.31245927  0.72593197  0.63693948     0.09810
C2764       C  0.31525770  0.76784574  0.63616286    -0.07310
C2765       C  0.27906534  0.77136365  0.62718488    -0.18550
C2766       C  0.23878962  0.73434835  0.62313315     0.09840
S2767       S  0.35773350  0.71715691  0.64467273    -0.33510
S2768       S  0.19324162  0.74209816  0.61364470    -0.33520
H2769       H  0.21380568  0.78805903  0.61578904     0.27850
H2770       H  0.38708934  0.75079675  0.62676860     0.27850
H2771       H  0.27015019  0.65677230  0.63524011     0.18440
H2772       H  0.28147690  0.80347631  0.62484832     0.18450
loop_ 
_geom_bond_atom_site_label_1 
_geom_bond_atom_site_label_2 
_geom_bond_distance 
_geom_bond_site_symmetry_2 
_ccdc_geom_bond_type 
O1            C9   1.266       .  A
O1          Co21   2.026       .  S
O2           C10   1.235       .  A
O2          Co22   1.928       .  S
O3           C11   1.236       .  A
O3          Co23   1.927       .  S
O4           C12   1.265       .  A
O4          Co24   1.817       .  S
O5           C11   1.277       .  A
O5          Co22   2.102       .  S
O6           C12   1.302       .  A
O6          Co21   2.104       .  S
O7           C10   1.275       .  A
O7          Co24   2.050       .  S
O8            C9   1.251       .  A
O8          Co23   1.949       .  S
C9         C1327   1.487       .  S
C10        C1318   1.472   1_455  S
C11        C1342   1.503   1_455  S
C12        C1291   1.442       .  S
O13          C26   1.232       .  A
O13         Co21   1.892       .  S
O14          C27   1.257       .  A
O14         Co22   1.922       .  S
O15          C28   1.263       .  A
O15         Co23   2.026       .  S
O16          C29   1.282       .  A
O16         Co24   2.016       .  S
O17          C29   1.285       .  A
O17         Co22   2.075       .  S
O18          C28   1.247       .  A
O18         Co21   1.954       .  S
O19          C26   1.289       .  A
O19         Co24   2.132       .  S
O20          C27   1.288       .  A
O20         Co23   2.031       .  S
Co21         O25   2.090       .  S
Co22         O25   2.093       .  S
Co23         O25   2.018       .  S
Co24         O25   1.927       .  S
C26        C1366   1.477       .  S
C27        C1306   1.468       .  S
C28        C1375   1.488       .  S
C29        C1351   1.513       .  S
O30          C38   1.261       .  A
O30         Co50   1.961       .  S
O31          C39   1.271       .  A
O31         Co51   2.018       .  S
O32          C40   1.282       .  A
O32         Co52   1.999   1_655  S
O33          C41   1.269       .  A
O33         Co53   1.988       .  S
O34          C40   1.266   1_455  A
O34         Co51   2.008       .  S
O35          C41   1.267       .  A
O35         Co50   2.027       .  S
O36          C39   1.281       .  A
O36         Co53   2.004       .  S
O37          C38   1.271       .  A
O37         Co52   1.978       .  S
C38        C2689   1.467       .  S
C39        C1255   1.491       .  S
C40        C1219   1.483       .  S
C41        C1267   1.446       .  S
O42          C55   1.267       .  A
O42         Co50   1.985       .  S
O43          C56   1.252       .  A
O43         Co51   1.995       .  S
O44          C57   1.273       .  A
O44         Co52   1.999       .  S
O45          C58   1.232       .  A
O45         Co53   1.922       .  S
O46          C58   1.254       .  A
O46         Co51   1.976       .  S
O47          C57   1.265       .  A
O47         Co50   1.954       .  S
O48          C55   1.274       .  A
O48         Co53   2.038       .  S
O49          C56   1.234       .  A
O49         Co52   1.933       .  S
Co50         O54   2.068       .  S
Co51         O54   2.178       .  S
Co52         O54   2.037       .  S
Co53         O54   1.946       .  S
C55        C1282   1.492       .  S
C56        C1243   1.460   1_455  S
C57        C1231   1.455       .  S
C58        C1294   1.436       .  S
O59          C67   1.248       .  A
O59         Co79   1.972       .  S
O60          C68   1.265       .  A
O60         Co80   1.976       .  S
O61          C69   1.236       .  A
O61         Co81   1.904       .  S
O62          C70   1.260       .  A
O62         Co82   1.950       .  S
O63          C69   1.292       .  A
O63         Co80   2.099       .  S
O64          C70   1.262       .  A
O64         Co79   1.980       .  S
O65          C68   1.281       .  A
O65         Co82   2.147       .  S
O66          C67   1.252       .  A
O66         Co81   1.979       .  S
C67        C1198   1.455       .  S
C68        C1162   1.503       .  S
C69        C1210   1.465       .  S
C70        C2557   1.449   1_554  S
O71          C84   1.261       .  A
O71         Co79   1.883       .  S
O72          C85   1.249       .  A
O72         Co80   1.805       .  S
O73          C86   1.261       .  A
O73         Co81   1.986       .  S
O74          C87   1.217       .  A
O74         Co82   1.936       .  S
O75          C87   1.263       .  A
O75         Co80   2.124       .  S
O76          C86   1.269       .  A
O76         Co79   1.999       .  S
O77          C84   1.286       .  A
O77         Co82   2.052       .  S
O78          C85   1.303       .  A
O78         Co81   2.116       .  S
Co79         O83   1.981       .  S
Co80         O83   1.940       .  S
Co81         O83   2.147       .  S
Co82         O83   2.111       .  S
C84        C1150   1.471       .  S
C85        C1186   1.461       .  S
C86        C1339   1.491       .  S
C87        C1135   1.523       .  S
O88          C96   1.287       .  A
O88        Co108   2.053       .  S
O89          C97   1.252       .  A
O89        Co109   1.794       .  S
O90          C98   1.247       .  A
O90        Co110   1.952       .  S
O91          C99   1.260       .  A
O91        Co111   1.956       .  S
O92          C98   1.283       .  A
O92        Co109   2.146       .  S
O93          C99   1.262       .  A
O93        Co108   1.959       .  S
O94          C97   1.334       .  A
O94        Co111   2.193       .  S
O95          C96   1.267       .  A
O95        Co110   1.863       .  S
C96        C1111   1.445       .  S
C97        C1102   1.476       .  S
C98        C1123   1.497       .  S
C99        C1183   1.439       .  S
O100        C113   1.240       .  A
O100       Co108   1.874       .  S
O101        C114   1.253       .  A
O101       Co109   1.926       .  S
O102        C115   1.250       .  A
O102       Co110   1.964       .  S
O103        C116   1.238       .  A
O103       Co111   1.909       .  S
O104        C116   1.273       .  A
O104       Co109   2.035       .  S
O105        C115   1.249       .  A
O105       Co108   1.953       .  S
O106        C113   1.291       .  A
O106       Co111   2.065       .  S
O107        C114   1.265       .  A
O107       Co110   2.032       .  S
Co108       O112   2.108       .  S
Co109       O112   1.851       .  S
Co110       O112   1.958       .  S
Co111       O112   2.133       .  S
C113       C1087   1.478       .  S
C114       C1174   1.474       .  S
C115       C1246   1.469       .  S
C116       C1078   1.487       .  S
O117       C1511   1.259   1_554  A
O117       Co137   1.989       .  S
O118        C126   1.310       .  A
O118       Co138   2.135       .  S
O119        C127   1.269       .  A
O119      Co1525   2.009       .  S
O120        C128   1.293       .  A
O120       Co140   2.134       .  S
O121        C127   1.280       .  A
O121       Co138   1.992       .  S
O122        C128   1.251       .  A
O122       Co137   1.890       .  S
O123       C1512   1.234       .  A
O123       Co140   1.827       .  S
O124        C125   1.243       .  A
O124      Co1525   1.911       .  S
C125       O1503   1.259       .  A
C125       C1234   1.434       .  S
C126       O1509   1.234       .  A
C126       C2401   1.454   1_565  S
C127       C1030   1.492       .  S
C128       C1003   1.513       .  S
O129        C142   1.251       .  A
O129       Co137   2.016       .  S
O130        C143   1.258       .  A
O130      Co1524   2.064   1_556  S
O131        C144   1.261       .  A
O131       Co139   1.959   1_554  S
O132        C145   1.315       .  A
O132       Co140   2.117       .  S
O133        C145   1.279       .  A
O133      Co1524   1.857       .  S
O134        C144   1.250       .  A
O134       Co137   1.955       .  S
O135        C142   1.241       .  A
O135       Co140   1.939       .  S
O136        C143   1.231   1_554  A
O136       Co139   1.933   1_554  S
Co137       O141   2.134       .  S
Co138      O1516   2.064       .  S
Co138      O1519   1.857       .  S
Co138      O1527   2.089       .  S
Co139      O1505   2.009       .  S
Co139      O1510   1.911       .  S
Co139       O141   1.974   1_556  S
Co140       O141   1.910       .  S
O141      Co1524   2.089       .  S
C142       C1042   1.470       .  S
C143       C2440   1.478   1_455  S
C144       C1147   1.438   1_455  S
C145       C1066   1.471   1_565  S
O146        C154   1.248       .  A
O146       Co166   1.942       .  S
O147        C155   1.266       .  A
O147       Co167   2.019   1_545  S
O148        C156   1.268       .  A
O148       Co168   1.987       .  S
O149        C157   1.237       .  A
O149       Co169   1.926       .  S
O150        C156   1.263       .  A
O150       Co167   1.987       .  S
O151        C157   1.262       .  A
O151       Co166   2.043       .  S
O152        C155   1.248   1_565  A
O152       Co169   1.952       .  S
O153        C154   1.267       .  A
O153       Co168   2.042       .  S
C154       C1330   1.491       .  S
C155        C967   1.490       .  S
C156       C1039   1.458       .  S
C157        C955   1.496       .  S
O158        C171   1.262       .  A
O158       Co166   1.960       .  S
O159        C172   1.253       .  A
O159       Co167   2.022       .  S
O160        C173   1.234       .  A
O160       Co168   1.939       .  S
O161        C174   1.264       .  A
O161       Co169   2.031       .  S
O162        C174   1.256       .  A
O162       Co167   1.958       .  S
O163        C173   1.271       .  A
O163       Co166   2.075       .  S
O164        C171   1.262       .  A
O164       Co169   2.000       .  S
O165        C172   1.247       .  A
O165       Co168   1.949       .  S
Co166       O170   2.138       .  S
Co167       O170   2.077       .  S
Co168       O170   2.081       .  S
Co169       O170   2.164       .  S
C171       C1027   1.492       .  S
C172        C982   1.475       .  S
C173       C1090   1.487   1_455  S
C174        C991   1.501   1_565  S
O175        C183   1.257       .  A
O175       Co195   1.933       .  S
O176        C184   1.283       .  A
O176       Co196   1.961       .  S
O177        C185   1.279       .  A
O177       Co197   2.024       .  S
O178        C186   1.296       .  A
O178       Co198   2.090       .  S
O179        C185   1.282       .  A
O179       Co196   2.030       .  S
O180        C186   1.265       .  A
O180       Co195   2.008       .  S
O181        C184   1.290       .  A
O181       Co198   2.038       .  S
O182        C183   1.287       .  A
O182       Co197   2.073       .  S
C183        C943   1.492       .  S
C184       C1018   1.482       .  S
C185        C931   1.527       .  S
C186        C907   1.534       .  S
O187        C200   1.282       .  A
O187       Co195   2.061       .  S
O188        C201   1.274       .  A
O188       Co196   2.075       .  S
O189        C202   1.225       .  A
O189       Co197   1.915       .  S
O190        C203   1.271       .  A
O190       Co198   1.937       .  S
O191        C203   1.302       .  A
O191       Co196   2.121       .  S
O192        C202   1.267       .  A
O192       Co195   2.056       .  S
O193        C200   1.261       .  A
O193       Co198   1.965       .  S
O194        C201   1.243       .  A
O194       Co197   1.957       .  S
Co195       O199   2.117       .  S
Co196       O199   2.071       .  S
Co197       O199   1.966       .  S
Co198       O199   1.918       .  S
C200       C2308   1.530   1_554  S
C201        C898   1.510       .  S
C202       C1207   1.480       .  S
C203        C886   1.519       .  S
O204        C212   1.280       .  A
O204       Co224   1.890       .  S
O205        C213   1.309       .  A
O205       Co225   2.129       .  S
O206        C214   1.239       .  A
O206       Co226   1.924       .  S
O207        C215   1.247       .  A
O207       Co227   1.963       .  S
O208        C214   1.279       .  A
O208       Co225   2.107       .  S
O209        C215   1.274       .  A
O209       Co224   2.101       .  S
O210        C213   1.258       .  A
O210       Co227   1.816       .  S
O211        C212   1.292       .  A
O211       Co226   2.045       .  S
C212        C871   1.460       .  S
C213        C970   1.465       .  S
C214        C919   1.536       .  S
C215        C859   1.519       .  S
O216        C229   1.265       .  A
O216       Co224   2.001       .  S
O217        C230   1.256       .  A
O217       Co225   1.958       .  S
O218        C231   1.252       .  A
O218       Co226   1.965       .  S
O219        C232   1.252       .  A
O219       Co227   1.992       .  S
O220        C232   1.263       .  A
O220       Co225   2.004       .  S
O221        C231   1.266       .  A
O221       Co224   2.019       .  S
O222        C229   1.271       .  A
O222       Co227   2.026       .  S
O223        C230   1.265       .  A
O223       Co226   2.022       .  S
Co224       O228   1.989       .  S
Co225       O228   2.182       .  S
Co226       O228   2.147       .  S
Co227       O228   1.952       .  S
C229        C934   1.517       .  S
C230        C850   1.490       .  S
C231       C1126   1.503       .  S
C232        C835   1.502       .  S
O233        C241   1.267       .  A
O233       Co253   1.995       .  S
O234        C242   1.280       .  A
O234       Co254   2.104       .  S
O235        C243   1.288       .  A
O235       Co255   2.039       .  S
O236        C244   1.333       .  A
O236       Co256   2.248       .  S
O237        C243   1.247       .  A
O237       Co254   1.912       .  S
O238        C244   1.266       .  A
O238       Co253   1.886       .  S
O239        C242   1.272       .  A
O239       Co256   1.969       .  S
O240        C241   1.262       .  A
O240       Co255   1.977       .  S
C241       C1378   1.490       .  S
C242        C790   1.522       .  S
C243        C814   1.438       .  S
C244        C823   1.496       .  S
O245        C258   1.283       .  A
O245       Co253   2.073       .  S
O246        C259   1.278       .  A
O246       Co254   2.071       .  S
O247        C260   1.274       .  A
O247       Co255   1.991       .  S
O248        C261   1.283       .  A
O248       Co256   2.127       .  S
O249        C261   1.227       .  A
O249       Co254   1.925       .  S
O250        C260   1.274       .  A
O250       Co253   2.020       .  S
O251        C258   1.272       .  A
O251       Co256   1.865       .  S
O252        C259   1.263       .  A
O252       Co255   1.976       .  S
Co253       O257   1.983       .  S
Co254       O257   2.014       .  S
Co255       O257   2.028       .  S
Co256       O257   1.976       .  S
C258        C799   1.452       .  S
C259        C910   1.520   1_565  S
C260        C958   1.499       .  S
C261        C778   1.510   1_565  S
O262        C270   1.272       .  A
O262       Co282   1.994       .  S
O263        C271   1.281       .  A
O263       Co283   2.094       .  S
O264        C272   1.279       .  A
O264       Co284   2.024       .  S
O265        C273   1.324       .  A
O265       Co285   2.194       .  S
O266        C272   1.248       .  A
O266       Co283   1.916       .  S
O267        C273   1.269       .  A
O267       Co282   1.901       .  S
O268        C271   1.280       .  A
O268       Co285   2.014       .  S
O269        C270   1.272       .  A
O269       Co284   2.018       .  S
C270       C1279   1.503       .  S
C271        C754   1.519       .  S
C272        C802   1.431       .  S
C273        C763   1.483       .  S
O274       C1673   1.280       .  A
O274       Co282   2.061       .  S
O275        C288   1.279       .  A
O275       Co283   2.080       .  S
O276        C289   1.263       .  A
O276       Co284   1.991       .  S
O277        C290   1.273       .  A
O277       Co285   2.080       .  S
O278        C290   1.230       .  A
O278       Co283   1.913       .  S
O279        C289   1.274       .  A
O279       Co282   2.024       .  S
O280       C1673   1.272       .  A
O280       Co285   1.873       .  S
O281        C288   1.262       .  A
O281       Co284   1.971       .  S
Co282       O286   1.995       .  S
Co283       O286   2.024       .  S
Co284       O286   2.038       .  S
Co285       O286   1.991       .  S
C287       O1660   1.280       .  A
C287       O1666   1.272       .  A
C287        C811   1.457   1_556  S
C288        C862   1.523   1_565  S
C289       C1006   1.494       .  S
C290        C742   1.486   1_565  S
O291        C299   1.299       .  A
O291       Co311   2.076       .  S
O292        C300   1.266       .  A
O292       Co312   2.138       .  S
O293        C301   1.274       .  A
O293       Co313   2.011       .  S
O294        C302   1.282       .  A
O294       Co314   2.085       .  S
O295        C301   1.261       .  A
O295       Co312   1.969       .  S
O296        C302   1.250       .  A
O296       Co311   1.932       .  S
O297        C300   1.205       .  A
O297       Co314   1.914       .  S
O298        C299   1.263       .  A
O298       Co313   1.873       .  S
C299       C1195   1.450       .  S
C300        C775   1.521       .  S
C301       C2101   1.478       .  S
C302        C946   1.491       .  S
O303        C316   1.280       .  A
O303       Co311   2.031       .  S
O304        C317   1.264       .  A
O304       Co312   2.024       .  S
O305        C318   1.250       .  A
O305       Co313   1.994       .  S
O306        C319   1.352       .  A
O306       Co314   2.307       .  S
O307        C319   1.248       .  A
O307       Co312   1.745       .  S
O308        C318   1.240       .  A
O308       Co311   1.963       .  S
O309        C316   1.274       .  A
O309       Co314   1.964       .  S
O310        C317   1.246       .  A
O310       Co313   1.968       .  S
Co311       O315   2.111       .  S
Co312       O315   1.950       .  S
Co313       O315   1.931       .  S
Co314       O315   2.052       .  S
C316        C727   1.486       .  S
C317        C703   1.491       .  S
C318       C1315   1.476       .  S
C319        C691   1.494       .  S
O320        C328   1.259       .  A
O320       Co340   1.991       .  S
O321        C329   1.268       .  A
O321       Co341   2.192       .  S
O322        C330   1.294       .  A
O322       Co342   2.068       .  S
O323        C331   1.277       .  A
O323       Co343   2.049       .  S
O324        C330   1.259       .  A
O324       Co341   1.970       .  S
O325        C331   1.240       .  A
O325       Co340   1.899       .  S
O326        C329   1.201       .  A
O326       Co343   1.909       .  S
O327        C328   1.260       .  A
O327       Co342   1.961       .  S
C328       C1114   1.449       .  S
C329        C739   1.550       .  S
C330        C730   1.473       .  S
C331        C874   1.463       .  S
O332        C345   1.260       .  A
O332       Co340   1.965       .  S
O333        C346   1.255       .  A
O333       Co341   2.006       .  S
O334        C347   1.274       .  A
O334       Co342   1.942       .  S
O335        C348   1.342       .  A
O335       Co343   2.285       .  S
O336        C348   1.232       .  A
O336       Co341   1.774       .  S
O337        C347   1.276       .  A
O337       Co340   2.023       .  S
O338        C345   1.272       .  A
O338       Co343   1.990       .  S
O339        C346   1.240       .  A
O339       Co342   1.955       .  S
Co340       O344   2.124       .  S
Co341       O344   1.953       .  S
Co342       O344   1.967       .  S
Co343       O344   2.067       .  S
C345        C718   1.476       .  S
C346        C679   1.468       .  S
C347       C1222   1.480       .  S
C348        C667   1.488       .  S
O349        C357   1.254       .  A
O349       Co369   1.945       .  S
O350       C1744   1.225       .  A
O350       Co370   1.932   1_556  S
O351        C359   1.241       .  A
O351       Co371   1.975       .  S
O352        C360   1.290       .  A
O352       Co372   2.075       .  S
O353        C359   1.249       .  A
O353       Co370   2.005       .  S
O354        C360   1.252       .  A
O354       Co369   1.913       .  S
O355        C358   1.259       .  A
O355       Co372   2.096       .  S
O356       C1743   1.276   1_554  A
O356       Co371   2.046       .  S
C357       O1742   1.276       .  A
C357       C1258   1.476       .  S
C358       O1736   1.225       .  A
C358       C2269   1.511       .  S
C359        C619   1.500   1_554  S
C360        C631   1.473       .  S
O361        C374   1.261       .  A
O361       Co369   2.033       .  S
O362        C375   1.290       .  A
O362       Co370   2.044       .  S
O363        C376   1.264       .  A
O363       Co371   1.979       .  S
O364        C377   1.275       .  A
O364      Co1758   1.834       .  S
O365        C377   1.317       .  A
O365       Co370   2.151       .  S
O366        C376   1.273       .  A
O366      Co1755   2.011   1_554  S
O367        C374   1.254       .  A
O367       Co372   1.997       .  S
O368        C375   1.282       .  A
O368       Co371   1.932       .  S
Co369      O1752   2.011       .  S
Co369      O1759   2.071       .  S
Co370       O373   2.151       .  S
Co371       O373   1.974       .  S
Co372      O1750   1.834       .  S
Co372      O1759   1.993       .  S
O373      Co1755   2.071   1_554  S
O373      Co1758   1.993       .  S
C374        C658   1.521   1_455  S
C375        C643   1.484       .  S
C376        C706   1.480   1_455  S
C377       C1063   1.462       .  S
O378        C386   1.263       .  A
O378       Co398   1.925       .  S
O379        C387   1.238       .  A
O379       Co399   1.946       .  S
O380        C388   1.230       .  A
O380       Co400   1.911       .  S
O381        C389   1.270       .  A
O381       Co401   2.028       .  S
O382        C388   1.259       .  A
O382       Co399   2.061       .  S
O383        C389   1.256       .  A
O383       Co398   1.994       .  S
O384        C387   1.280       .  A
O384       Co401   2.108       .  S
O385        C386   1.290       .  A
O385       Co400   2.090       .  S
C386       C1354   1.489       .  S
C387        C838   1.523       .  S
C388        C598   1.485       .  S
C389        C646   1.494       .  S
O390        C403   1.256       .  A
O390       Co398   2.005       .  S
O391        C404   1.239       .  A
O391       Co399   1.900       .  S
O392        C405   1.246       .  A
O392       Co400   1.959       .  S
O393        C406   1.232       .  A
O393       Co401   1.939       .  S
O394        C406   1.268       .  A
O394       Co399   2.081       .  S
O395        C405   1.254       .  A
O395       Co398   2.004       .  S
O396        C403   1.245       .  A
O396       Co401   1.962       .  S
O397        C404   1.285       .  A
O397       Co400   2.088       .  S
Co398       O402   2.031       .  S
Co399       O402   2.168       .  S
Co400       O402   2.177       .  S
Co401       O402   2.118       .  S
C403        C610   1.506   1_455  S
C404        C634   1.482       .  S
C405        C682   1.494   1_455  S
C406        C994   1.507       .  S
O407        C415   1.238       .  A
O407      Co1813   1.930       .  S
O408        C416   1.341       .  A
O408       Co428   2.221       .  S
O409        C417   1.300       .  A
O409       Co429   2.075       .  S
O410        C418   1.284       .  A
O410       Co430   2.166       .  S
O411        C417   1.296       .  A
O411       Co428   1.990       .  S
O412        C418   1.227   1_556  A
O412       Co427   1.914   1_556  S
O413        C416   1.252       .  A
O413      Co1816   1.850       .  S
O414        C415   1.265       .  A
O414       Co429   2.027       .  S
C415       C1051   1.475       .  S
C416       C2080   1.511   1_565  S
C417        C562   1.507       .  S
C418        C655   1.502   1_565  S
O419        C432   1.281       .  A
O419       Co427   2.021       .  S
O420        C433   1.259       .  A
O420       Co428   2.099       .  S
O421       C1820   1.267       .  A
O421       Co429   1.991       .  S
O422       C1821   1.337       .  A
O422       Co430   2.186   1_556  S
O423        C435   1.272       .  A
O423       Co428   1.851       .  S
O424        C434   1.275       .  A
O424       Co427   2.048       .  S
O425        C432   1.277       .  A
O425       Co430   1.974       .  S
O426        C433   1.233       .  A
O426       Co429   1.931       .  S
Co427      O1793   1.930   1_554  S
Co427      O1817   2.011   1_554  S
Co428       O431   2.054       .  S
Co429       O431   2.004       .  S
Co430      O1799   1.850       .  S
Co430      O1817   1.991   1_554  S
O431      Co1813   2.011       .  S
O431      Co1816   1.991       .  S
C432        C571   1.466       .  S
C433        C583   1.497       .  S
C434       O1807   1.267       .  A
C434       C1138   1.517       .  S
C435       O1808   1.337       .  A
C435        C751   1.508       .  S
O436        C444   1.236       .  A
O436       Co456   1.933       .  S
O437        C445   1.335       .  A
O437       Co457   2.194       .  S
O438        C446   1.285       .  A
O438       Co458   2.020       .  S
O439        C447   1.272       .  A
O439       Co459   2.151       .  S
O440        C446   1.290       .  A
O440       Co457   1.975       .  S
O441        C447   1.214       .  A
O441       Co456   1.915       .  S
O442        C445   1.258       .  A
O442       Co459   1.860       .  S
O443        C444   1.268       .  A
O443       Co458   2.039       .  S
C444        C979   1.484       .  S
C445        C670   1.494   1_565  S
C446        C574   1.490       .  S
C447        C607   1.481   1_565  S
O448        C461   1.293       .  A
O448       Co456   2.075       .  S
O449        C462   1.268       .  A
O449       Co457   2.103       .  S
O450        C463   1.273       .  A
O450       Co458   1.975       .  S
O451        C464   1.342       .  A
O451       Co459   2.198       .  S
O452        C464   1.268       .  A
O452       Co457   1.841       .  S
O453        C463   1.265       .  A
O453       Co456   2.001       .  S
O454        C461   1.288       .  A
O454       Co459   1.988       .  S
O455        C462   1.255       .  A
O455       Co458   1.976       .  S
Co456       O460   1.974       .  S
Co457       O460   2.013       .  S
Co458       O460   2.023       .  S
Co459       O460   2.006       .  S
C461        C559   1.503       .  S
C462        C547   1.512       .  S
C463       C1075   1.483       .  S
C464        C787   1.522       .  S
O465        C473   1.267       .  A
O465       Co485   1.933       .  S
O466        C474   1.233       .  A
O466       Co486   1.941       .  S
O467        C475   1.256       .  A
O467       Co487   1.966       .  S
O468        C476   1.237       .  A
O468       Co488   1.921       .  S
O469        C475   1.271       .  A
O469       Co486   2.035       .  S
O470        C476   1.268       .  A
O470       Co485   2.050       .  S
O471        C474   1.275       .  A
O471       Co488   2.123       .  S
O472        C473   1.288       .  A
O472       Co487   2.060       .  S
C473       C1363   1.494       .  S
C474        C550   1.514       .  S
C475        C826   1.489       .  S
C476        C538   1.469       .  S
O477        C490   1.252       .  A
O477       Co485   1.953       .  S
O478        C491   1.266       .  A
O478       Co486   1.975       .  S
O479        C492   1.276       .  A
O479       Co487   1.947       .  S
O480        C493   1.234       .  A
O480       Co488   1.929       .  S
O481        C493   1.285       .  A
O481       Co486   2.134       .  S
O482        C492   1.288       .  A
O482       Co485   2.073       .  S
O483        C490   1.283       .  A
O483       Co488   2.090       .  S
O484        C491   1.261       .  A
O484       Co487   1.983       .  S
Co485       O489   2.076       .  S
Co486       O489   2.114       .  S
Co487       O489   2.063       .  S
Co488       O489   2.070       .  S
C490        C895   1.513       .  S
C491        C523   1.494       .  S
C492        C595   1.496       .  S
C493       C1159   1.535       .  S
O494        C502   1.292       .  A
O494       Co514   2.075       .  S
O495        C503   1.236       .  A
O495       Co515   1.947       .  S
O496        C504   1.247       .  A
O496       Co516   1.989       .  S
O497        C505   1.261       .  A
O497       Co517   1.939       .  S
O498        C504   1.266       .  A
O498       Co515   2.044       .  S
O499        C505   1.288       .  A
O499       Co514   2.055       .  S
O500        C503   1.270       .  A
O500       Co517   2.069       .  S
O501        C502   1.253       .  A
O501       Co516   1.883       .  S
C502       C1270   1.443       .  S
C503        C586   1.481       .  S
C504        C766   1.494       .  S
C505        C526   1.478       .  S
O506        C519   1.255       .  A
O506       Co514   2.000       .  S
O507       C1906   1.269       .  A
O507       Co515   1.982       .  S
O508        C521   1.291       .  A
O508       Co516   2.068       .  S
O509        C522   1.230       .  A
O509       Co517   1.921       .  S
O510        C522   1.278       .  A
O510       Co515   2.068       .  S
O511        C521   1.278       .  A
O511       Co514   1.942       .  S
O512        C519   1.256       .  A
O512       Co517   2.007       .  S
O513        C520   1.257   1_556  A
O513      Co1902   1.962       .  S
Co514       O518   2.039       .  S
Co515       O518   2.075       .  S
Co516      O1899   1.962       .  S
Co516       O518   1.977       .  S
Co517       O518   2.052       .  S
C519        C847   1.470       .  S
C520       O1893   1.269   1_554  A
C520        C535   1.469       .  S
C521        C622   1.497       .  S
C522       C1099   1.483       .  S
C523        C524   1.418       .  A
C523        C528   1.410       .  A
C524        C525   1.396       .  A
C524        H533   1.077       .  S
C525        C526   1.401       .  A
C525        S529   1.804       .  S
C526        C527   1.414       .  A
C527        C528   1.401       .  A
C527        H534   1.084       .  S
C528        S530   1.801       .  S
S529        H532   1.407       .  S
S530        H531   1.408       .  S
C535        C536   1.392       .  A
C535        C540   1.422       .  A
C536        C537   1.390       .  A
C536        H545   1.082       .  S
C537        C538   1.422       .  A
C537        S541   1.809       .  S
C538        C539   1.395       .  A
C539        C540   1.400       .  A
C539        H546   1.082       .  S
C540        S542   1.810       .  S
S541        H544   1.406       .  S
S542        H543   1.407       .  S
C547        C548   1.417       .  A
C547        C552   1.413       .  A
C548        C549   1.424       .  A
C548        H557   1.083       .  S
C549        C550   1.418       .  A
C549        S553   1.800       .  S
C550        C551   1.413       .  A
C551        C552   1.402       .  A
C551        H558   1.084       .  S
C552        S554   1.804       .  S
S553        H556   1.403       .  S
S554        H555   1.407       .  S
C559        C560   1.407       .  A
C559        C564   1.417       .  A
C560        C561   1.410       .  A
C560        H569   1.081       .  S
C561        C562   1.421       .  A
C561        S565   1.802       .  S
C562        C563   1.409       .  A
C563        C564   1.409       .  A
C563        H570   1.084       .  S
C564        S566   1.796       .  S
S565        H568   1.403       .  S
S566        H567   1.406       .  S
C571        C572   1.391       .  A
C571        C576   1.403       .  A
C572        C573   1.399       .  A
C572        H581   1.082       .  S
C573        C574   1.431       .  A
C573        S577   1.801       .  S
C574        C575   1.402       .  A
C575        C576   1.397       .  A
C575        H582   1.082       .  S
C576        S578   1.789       .  S
S577        H580   1.408       .  S
S578        H579   1.407       .  S
C583        C584   1.414       .  A
C583        C588   1.420       .  A
C584        C585   1.417       .  A
C584        H593   1.083       .  S
C585        C586   1.414       .  A
C585        S589   1.801       .  S
C586        C587   1.399       .  A
C587        C588   1.385       .  A
C587        H594   1.079       .  S
C588        S590   1.807       .  S
S589        H592   1.406       .  S
S590        H591   1.408       .  S
C595        C596   1.414       .  A
C595        C600   1.415       .  A
C596        C597   1.418       .  A
C596        H605   1.077       .  S
C597        C598   1.413       .  A
C597        S601   1.801       .  S
C598        C599   1.399       .  A
C599        C600   1.383       .  A
C599        H606   1.086       .  S
C600        S602   1.792       .  S
S601        H604   1.405       .  S
S602        H603   1.404       .  S
C607        C608   1.413       .  A
C607        C612   1.407       .  A
C608        C609   1.413       .  A
C608        H617   1.084       .  S
C609        C610   1.415       .  A
C609        S613   1.797       .  S
C610        C611   1.415       .  A
C611        C612   1.402       .  A
C611        H618   1.082       .  S
C612        S614   1.802       .  S
S613        H616   1.407       .  S
S614        H615   1.407   1_545  S
C619        C624   1.417   1_556  A
C619       C2006   1.410       .  A
C620        C621   1.402       .  A
C620       C2005   1.410       .  A
C620        H629   1.084       .  S
C621        C622   1.415       .  A
C621        S625   1.801       .  S
C622        C623   1.411       .  A
C623       C2010   1.410       .  A
C623        H630   1.084       .  S
C624       C2009   1.410   1_554  A
C624        S626   1.801       .  S
S625        H628   1.404       .  S
S626        H627   1.407       .  S
C631        C632   1.406       .  A
C631        C636   1.416       .  A
C632        C633   1.407       .  A
C632        H641   1.084       .  S
C633        C634   1.415       .  A
C633        S637   1.798       .  S
C634        C635   1.404       .  A
C635        C636   1.403       .  A
C635        H642   1.084       .  S
C636        S638   1.804       .  S
S637        H640   1.405       .  S
S638        H639   1.401       .  S
C643        C644   1.397       .  A
C643        C648   1.420       .  A
C644        C645   1.402       .  A
C644        H653   1.084       .  S
C645        C646   1.421       .  A
C645        S649   1.794       .  S
C646        C647   1.401       .  A
C647        C648   1.407       .  A
C647        H654   1.084       .  S
C648        S650   1.804       .  S
S649        H652   1.401       .  S
S650        H651   1.406       .  S
C655        C660   1.414       .  A
C655       C2042   1.410   1_554  A
C656        C657   1.412       .  A
C656       C2041   1.410       .  A
C656        H665   1.084       .  S
C657        C658   1.421       .  A
C657        S661   1.800       .  S
C658       C2045   1.414       .  A
C659        C660   1.414       .  A
C659       C2044   1.414       .  A
C659        H666   1.081       .  S
C660        S662   1.801       .  S
S661        H664   1.408       .  S
S662        H663   1.400       .  S
C667        C668   1.423       .  A
C667        C672   1.411       .  A
C668        C669   1.405       .  A
C668        H677   1.074       .  S
C669        C670   1.403       .  A
C669        S673   1.805       .  S
C670        C671   1.421       .  A
C671        C672   1.411       .  A
C671        H678   1.068       .  S
C672        S674   1.804       .  S
S673        H676   1.407       .  S
S674        H675   1.407       .  S
C679        C680   1.397       .  A
C679        C684   1.407       .  A
C680        C681   1.398       .  A
C680        H689   1.082       .  S
C681        C682   1.414       .  A
C681        S685   1.779       .  S
C682        C683   1.411       .  A
C683        C684   1.395       .  A
C683        H690   1.083   1_655  S
C684        S686   1.801       .  S
S685        H688   1.405       .  S
S686        H687   1.407       .  S
C691        C692   1.406       .  A
C691        C696   1.427       .  A
C692        C693   1.417       .  A
C692        H701   1.077       .  S
C693        C694   1.427       .  A
C693       S2083   1.797   1_545  S
C694       C1802   1.511   1_545  S
C694        C695   1.400       .  A
C695        C696   1.414       .  A
C695        H702   1.066       .  S
C696        S698   1.800       .  S
S697       C2079   1.797   1_565  S
S697        H700   1.407   1_565  S
S698        H699   1.407       .  S
C703        C704   1.409       .  A
C703        C708   1.421       .  A
C704        C705   1.408       .  A
C704        H713   1.081       .  S
C705        C706   1.411       .  A
C705        S709   1.797       .  S
C706        C707   1.401       .  A
C707        C708   1.395       .  A
C707        H714   1.083       .  S
C708        S710   1.814       .  S
S709        H712   1.405   1_655  S
S710        H711   1.407       .  S
C715       C1687   1.478       .  S
C715        C716   1.412       .  A
C715        C720   1.408       .  A
C716        C717   1.401       .  A
C716       H2111   1.084       .  S
C717        C718   1.407       .  A
C717        S721   1.800       .  S
C718        C719   1.411       .  A
C719        C720   1.396       .  A
C719        H726   1.085       .  S
C720        S722   1.800       .  S
S721        H724   1.407       .  S
S722       H2109   1.403       .  S
H723       S2108   1.403   1_554  S
H725       C2102   1.084   1_554  S
C727        C728   1.403       .  A
C727        C732   1.422       .  A
C728        C729   1.400       .  A
C728        H737   1.084       .  S
C729        C730   1.415       .  A
C729        S733   1.805       .  S
C730        C731   1.397       .  A
C731        C732   1.399       .  A
C731        H738   1.084       .  S
C732        S734   1.803       .  S
S733        H736   1.406       .  S
S734        H735   1.406       .  S
C739        C740   1.418       .  A
C739        C744   1.422       .  A
C740        C741   1.390       .  A
C740        H749   1.069       .  S
C741        C742   1.393       .  A
C741        S745   1.806       .  S
C742        C743   1.419       .  A
C743        C744   1.430       .  A
C743        H750   1.080   1_545  S
C744        S746   1.786       .  S
S745        H748   1.408       .  S
S746        H747   1.407   1_545  S
C751        C752   1.410       .  A
C751        C756   1.420       .  A
C752        C753   1.426       .  A
C752        H761   1.083       .  S
C753        C754   1.422       .  A
C753        S757   1.791       .  S
C754        C755   1.402       .  A
C755        C756   1.405       .  A
C755        H762   1.072       .  S
C756        S758   1.810       .  S
S757        H760   1.406       .  S
S758        H759   1.406   1_565  S
C763        C764   1.396       .  A
C763        C768   1.413       .  A
C764        C765   1.395       .  A
C764        H773   1.084       .  S
C765        C766   1.420       .  A
C765        S769   1.806       .  S
C766        C767   1.410       .  A
C767        C768   1.414       .  A
C767       H2160   1.083       .  S
C768       S2156   1.798       .  S
S769        H772   1.407       .  S
S770       C2154   1.798   1_554  S
S770        H771   1.405       .  S
H774       C2153   1.083   1_554  S
C775        C776   1.430       .  A
C775        C780   1.405       .  A
C776        C777   1.411       .  A
C776        H785   1.073       .  S
C777        C778   1.400       .  A
C777        S781   1.800       .  S
C778        C779   1.424       .  A
C779        C780   1.413       .  A
C779        H786   1.081   1_545  S
C780        S782   1.802       .  S
S781        H784   1.405       .  S
S782        H783   1.403       .  S
C787        C788   1.429       .  A
C787        C792   1.405       .  A
C788        C789   1.411       .  A
C788        H797   1.081       .  S
C789        C790   1.406       .  A
C789        S793   1.808       .  S
C790        C791   1.430       .  A
C791        C792   1.414       .  A
C791        H798   1.080       .  S
C792        S794   1.798       .  S
S793        H796   1.407       .  S
S794        H795   1.407       .  S
C799        C800   1.392       .  A
C799        C804   1.424       .  A
C800        C801   1.378       .  A
C800        H809   1.083       .  S
C801        C802   1.415       .  A
C801        S805   1.808       .  S
C802        C803   1.383       .  A
C803        C804   1.386       .  A
C803        H810   1.084       .  S
C804        S806   1.804       .  S
S805        H808   1.406       .  S
S806        H807   1.407       .  S
C811        C812   1.395       .  A
C811        C816   1.423       .  A
C812        C813   1.379       .  A
C812        H821   1.082       .  S
C813        C814   1.418       .  A
C813        S817   1.813       .  S
C814        C815   1.384       .  A
C815        C816   1.384       .  A
C815        H822   1.084       .  S
C816        S818   1.798       .  S
S817        H820   1.407       .  S
S818        H819   1.407       .  S
C823        C824   1.410       .  A
C823        C828   1.418       .  A
C824        C825   1.412       .  A
C824        H833   1.084       .  S
C825        C826   1.413       .  A
C825        S829   1.803       .  S
C826        C827   1.403       .  A
C827        C828   1.403       .  A
C827        H834   1.083       .  S
C828        S830   1.802       .  S
S829        H832   1.406       .  S
S830        H831   1.402       .  S
C835        C836   1.391       .  A
C835        C840   1.430       .  A
C836        C837   1.395       .  A
C836        H845   1.085       .  S
C837        C838   1.421       .  A
C837        S841   1.776       .  S
C838        C839   1.403       .  A
C839        C840   1.421       .  A
C839        H846   1.080       .  S
C840        S842   1.799       .  S
S841        H844   1.408       .  S
S842        H843   1.385       .  S
C847        C848   1.399       .  A
C847        C852   1.410       .  A
C848        C849   1.400       .  A
C848        H857   1.084       .  S
C849        C850   1.418       .  A
C849        S853   1.791       .  S
C850        C851   1.408       .  A
C851        C852   1.395       .  A
C851        H858   1.084       .  S
C852        S854   1.802       .  S
S853        H856   1.400       .  S
S854        H855   1.406       .  S
C859        C860   1.412       .  A
C859        C864   1.424       .  A
C860        C861   1.420       .  A
C860        H869   1.082       .  S
C861        C862   1.423       .  A
C861        S865   1.797       .  S
C862        C863   1.409       .  A
C863        C864   1.404       .  A
C863        H870   1.083       .  S
C864        S866   1.802       .  S
S865        H868   1.408   1_545  S
S866        H867   1.394       .  S
C871        C872   1.409       .  A
C871        C876   1.400       .  A
C872        C873   1.397       .  A
C872        H881   1.083       .  S
C873        C874   1.404       .  A
C873        S877   1.802       .  S
C874        C875   1.411       .  A
C875        C876   1.389       .  A
C875        H882   1.072       .  S
C876        S878   1.808       .  S
S877        H880   1.407       .  S
S878        H879   1.408       .  S
C883       C1744   1.511   1_554  S
C883        C884   1.411       .  A
C883        C888   1.417   1_554  A
C884        C885   1.400       .  A
C884        H893   1.084       .  S
C885        C886   1.417       .  A
C885        S889   1.801       .  S
C886        C887   1.420       .  A
C887        C888   1.423   1_554  A
C887        H894   1.083   1_554  S
C888       S2276   1.803       .  S
S889        H892   1.406       .  S
S890       C2274   1.803       .  S
S890        H891   1.400       .  S
C895        C896   1.403       .  A
C895        C900   1.428       .  A
C896        C897   1.412       .  A
C896        H905   1.084       .  S
C897        C898   1.427       .  A
C897        S901   1.805       .  S
C898        C899   1.404       .  A
C899        C900   1.416       .  A
C899        H906   1.084       .  S
C900        S902   1.803       .  S
S901        H904   1.406       .  S
S902        H903   1.407       .  S
C907        C908   1.416       .  A
C907        C912   1.428       .  A
C908        C909   1.416       .  A
C908        H917   1.083       .  S
C909        C910   1.417       .  A
C909        S913   1.791       .  S
C910        C911   1.405       .  A
C911        C912   1.408       .  A
C911        H918   1.084       .  S
C912        S914   1.788       .  S
S913        H916   1.408   1_545  S
S914        H915   1.394       .  S
C919        C920   1.412       .  A
C919        C924   1.433       .  A
C920        C921   1.428       .  A
C920        H929   1.082       .  S
C921        C922   1.425       .  A
C921        S925   1.806       .  S
C922       C1586   1.530       .  S
C922        C923   1.405       .  A
C923        C924   1.413       .  A
C923        H930   1.082       .  S
C924        S926   1.811       .  S
S925       H2314   1.407       .  S
S926        H927   1.407       .  S
H928       S2311   1.407       .  S
C931        C932   1.412       .  A
C931        C936   1.424       .  A
C932        C933   1.409       .  A
C932        H941   1.084       .  S
C933        C934   1.421       .  A
C933        S937   1.805       .  S
C934        C935   1.410       .  A
C935        C936   1.421       .  A
C935        H942   1.083       .  S
C936        S938   1.794       .  S
S937        H940   1.402       .  S
S938        H939   1.406       .  S
C943        C944   1.416       .  A
C943        C948   1.408       .  A
C944        C945   1.406       .  A
C944        H953   1.084       .  S
C945        C946   1.408       .  A
C945        S949   1.799       .  S
C946        C947   1.414       .  A
C947        C948   1.404       .  A
C947        H954   1.084       .  S
C948        S950   1.799       .  S
S949        H952   1.404       .  S
S950        H951   1.406       .  S
C955        C956   1.412       .  A
C955        C960   1.414       .  A
C956        C957   1.397       .  A
C956        H965   1.084       .  S
C957        C958   1.412       .  A
C957        S961   1.803       .  S
C958        C959   1.414       .  A
C959        C960   1.411       .  A
C959        H966   1.083       .  S
C960        S962   1.804       .  S
S961        H964   1.408       .  S
S962        H963   1.396       .  S
C967        C968   1.411       .  A
C967        C972   1.408       .  A
C968        C969   1.384       .  A
C968        H977   1.082   1_545  S
C969        C970   1.401       .  A
C969        S973   1.796       .  S
C970        C971   1.413       .  A
C971        C972   1.413       .  A
C971        H978   1.084       .  S
C972        S974   1.795       .  S
S973        H976   1.406       .  S
S974        H975   1.407       .  S
C979        C980   1.397       .  A
C979        C984   1.428       .  A
C980        C981   1.393       .  A
C980        H989   1.084       .  S
C981        C982   1.413   1_655  A
C981        S985   1.789       .  S
C982        C983   1.395       .  A
C983        C984   1.402   1_455  A
C983        H990   1.084       .  S
C984        S986   1.805       .  S
S985        H988   1.404   1_655  S
S986        H987   1.408       .  S
C991        C992   1.398       .  A
C991        C996   1.417       .  A
C992        C993   1.392       .  A
C992       H1001   1.083   1_545  S
C993        C994   1.429       .  A
C993        S997   1.811       .  S
C994        C995   1.412       .  A
C995        C996   1.420       .  A
C995       H1002   1.083       .  S
C996        S998   1.799       .  S
S997       H1000   1.408       .  S
S998        H999   1.407       .  S
C1003      C1004   1.416   1_554  A
C1003      C1008   1.416       .  A
C1004      C2391   1.394       .  A
C1004      H1013   1.082       .  S
C1005      C1006   1.408       .  A
C1005      C2390   1.394       .  A
C1005      S1009   1.804       .  S
C1006      C1007   1.412       .  A
C1007      C2394   1.417       .  A
C1007      H1014   1.083       .  S
C1008      C2393   1.417   1_554  A
C1008      S1010   1.794       .  S
S1009      H1012   1.405       .  S
S1010      H1011   1.407       .  S
C1015      C1512   1.454   1_545  S
C1015      C1016   1.370       .  A
C1015      C1020   1.428       .  A
C1016      C1017   1.384       .  A
C1016      H1025   1.082       .  S
C1017      C1018   1.447       .  A
C1017      S1021   1.808       .  S
C1018      C1019   1.390       .  A
C1019      C1020   1.392       .  A
C1019      H1026   1.082       .  S
C1020      S1022   1.815       .  S
S1021      H1024   1.408       .  S
S1022      H1023   1.406       .  S
C1027      C1028   1.398       .  A
C1027      C1032   1.422       .  A
C1028      C1029   1.393       .  A
C1028      H1037   1.082       .  S
C1029      C1030   1.430       .  A
C1029      S1033   1.815       .  S
C1030      C1031   1.402       .  A
C1031      C1032   1.404       .  A
C1031      H1038   1.084       .  S
C1032      S1034   1.796       .  S
S1033      H1036   1.407       .  S
S1034      H1035   1.407       .  S
C1039      C1040   1.398       .  A
C1039      C1044   1.409       .  A
C1040      C1041   1.380       .  A
C1040      H1049   1.085       .  S
C1041      C1042   1.414       .  A
C1041      S1045   1.806       .  S
C1042      C1043   1.410       .  A
C1043      C1044   1.405       .  A
C1043      H1050   1.084       .  S
C1044      S1046   1.805       .  S
S1045      H1048   1.406       .  S
S1046      H1047   1.405       .  S
C1051      C1052   1.395       .  A
C1051      C1056   1.422       .  A
C1052      C1053   1.393       .  A
C1052      H1061   1.084       .  S
C1053      C1054   1.422       .  A
C1053      S1057   1.798       .  S
C1054      C1529   1.478   1_655  S
C1054      C2441   1.397       .  A
C1055      C2440   1.397       .  A
C1055      C2442   1.398       .  A
C1055      H1062   1.084   1_655  S
C1056      C2441   1.398       .  A
C1056      S2444   1.805       .  S
S1057      H1060   1.400       .  S
S1058      C2442   1.805       .  S
S1058      H2445   1.406       .  S
H1059      S2444   1.406       .  S
C1063      C1064   1.390       .  A
C1063      C1068   1.413       .  A
C1064      C1065   1.385       .  A
C1064      H1073   1.081       .  S
C1065      C1066   1.419       .  A
C1065      S1069   1.799       .  S
C1066      C1067   1.401       .  A
C1067      C1068   1.404       .  A
C1067      H1074   1.084   1_545  S
C1068      S1070   1.797       .  S
S1069      H1072   1.407   1_554  S
S1070      H1071   1.407       .  S
C1075      C1076   1.388       .  A
C1075      C1080   1.419       .  A
C1076      C1077   1.388       .  A
C1076      H1085   1.083       .  S
C1077      C1078   1.431       .  A
C1077      S1081   1.804       .  S
C1078      C1079   1.405       .  A
C1079      C1080   1.412       .  A
C1079      H1086   1.078       .  S
C1080      S1082   1.800       .  S
S1081      H1084   1.407       .  S
S1082      H1083   1.407       .  S
C1087      C1088   1.416       .  A
C1087      C1092   1.408       .  A
C1088      C1089   1.406       .  A
C1088      H1097   1.080       .  S
C1089      C1090   1.404       .  A
C1089      S1093   1.804       .  S
C1090      C1091   1.406       .  A
C1091      C1092   1.408       .  A
C1091      H1098   1.074       .  S
C1092      S1094   1.802       .  S
S1093      H1096   1.405   1_655  S
S1094      H1095   1.407       .  S
C1099      C1100   1.389       .  A
C1099      C1104   1.426       .  A
C1100      C1101   1.393       .  A
C1100      H1109   1.076       .  S
C1101      C1102   1.433       .  A
C1101      S1105   1.816       .  S
C1102      C1103   1.397       .  A
C1103      C1104   1.402       .  A
C1103      H1110   1.084       .  S
C1104      S1106   1.803       .  S
S1105      H1108   1.406       .  S
S1106      H1107   1.408       .  S
C1111      C1112   1.397       .  A
C1111      C1116   1.411       .  A
C1112      C1113   1.388       .  A
C1112      H1121   1.084       .  S
C1113      C1114   1.405       .  A
C1113      S1117   1.804       .  S
C1114      C1115   1.399       .  A
C1115      C1116   1.392       .  A
C1115      H1122   1.084       .  S
C1116      S1118   1.804       .  S
S1117      H1120   1.407       .  S
S1118      H1119   1.407       .  S
C1123      C1124   1.396       .  A
C1123      C1128   1.422       .  A
C1124      C1125   1.403       .  A
C1124      H1133   1.078       .  S
C1125      C1126   1.425       .  A
C1125      S1129   1.813       .  S
C1126      C1127   1.405       .  A
C1127      C1128   1.416       .  A
C1127      H1134   1.083       .  S
C1128      S1130   1.796       .  S
S1129      H1132   1.405       .  S
S1130      H1131   1.402       .  S
C1135      C1136   1.415       .  A
C1135      C1140   1.420       .  A
C1136      C1137   1.400       .  A
C1136      H1145   1.070       .  S
C1137      C1138   1.411       .  A
C1137      S2527   1.806       .  S
C1138      C1139   1.419       .  A
C1139      C1140   1.429       .  A
C1139      H1146   1.083       .  S
C1140      S1142   1.801       .  S
S1141      C2523   1.806       .  S
S1141      H1144   1.408       .  S
S1142      H1143   1.407       .  S
C1147      C1148   1.398       .  A
C1147      C1152   1.399       .  A
C1148      C1149   1.394       .  A
C1148      H1157   1.085       .  S
C1149      C1150   1.418       .  A
C1149      S1153   1.795       .  S
C1150      C1151   1.408       .  A
C1151      C1152   1.387       .  A
C1151      H1158   1.078       .  S
C1152      S1154   1.803   1_655  S
S1153      H1156   1.400       .  S
S1154      H1155   1.407       .  S
C1159      C1160   1.422       .  A
C1159      C1164   1.420       .  A
C1160      C1161   1.409       .  A
C1160      H1169   1.083       .  S
C1161      C1162   1.408       .  A
C1161      S1165   1.802       .  S
C1162      C1163   1.419       .  A
C1163      C1164   1.423       .  A
C1163      H1170   1.082       .  S
C1164      S1166   1.798       .  S
S1165      H1168   1.407       .  S
S1166      H1167   1.406       .  S
C1171      C1456   1.449       .  S
C1171      C1172   1.399       .  A
C1171      C1176   1.403       .  A
C1172      C1173   1.401       .  A
C1172      H1181   1.081       .  S
C1173      C1174   1.415       .  A
C1173      S1177   1.791       .  S
C1174      C1175   1.403       .  A
C1175      C1176   1.379       .  A
C1175      H1182   1.082       .  S
C1176      S1178   1.807       .  S
S1177      H1180   1.408       .  S
S1178      H1179   1.407       .  S
C1183      C1184   1.391       .  A
C1183      C1188   1.409       .  A
C1184      C1185   1.379       .  A
C1184      H1193   1.086       .  S
C1185      C1186   1.420       .  A
C1185      S1189   1.811       .  S
C1186      C1187   1.403       .  A
C1187      C1188   1.398       .  A
C1187      H1194   1.083       .  S
C1188      S1190   1.804       .  S
S1189      H1192   1.409       .  S
S1190      H1191   1.407       .  S
C1195      C1196   1.398       .  A
C1195      C1200   1.411       .  A
C1196      C1197   1.391       .  A
C1196      H1205   1.084       .  S
C1197      C1198   1.406       .  A
C1197      S1201   1.799       .  S
C1198      C1199   1.400       .  A
C1199      C1200   1.391       .  A
C1199      H1206   1.083       .  S
C1200      S1202   1.805       .  S
S1201      H1204   1.408       .  S
S1202      H1203   1.404       .  S
C1207      C1208   1.390       .  A
C1207      C1212   1.435       .  A
C1208      C1209   1.392       .  A
C1208      H1217   1.084       .  S
C1209      C1210   1.415       .  A
C1209      S1213   1.789       .  S
C1210      C1211   1.384       .  A
C1211      C1212   1.400       .  A
C1211      H1218   1.083       .  S
C1212      S1214   1.801       .  S
S1213      H1216   1.403       .  S
S1214      H1215   1.408       .  S
C1219      C1220   1.404       .  A
C1219      C1224   1.409       .  A
C1220      C1221   1.396       .  A
C1220      H1229   1.063       .  S
C1221      C1222   1.405       .  A
C1221      S1225   1.803       .  S
C1222      C1223   1.412       .  A
C1223      C1224   1.405       .  A
C1223      H1230   1.084       .  S
C1224      S1226   1.802       .  S
S1225      H1228   1.406       .  S
S1226      H1227   1.406       .  S
C1231      C1232   1.403       .  A
C1231      C1236   1.410       .  A
C1232      C1233   1.378       .  A
C1232      H1241   1.084       .  S
C1233      C1234   1.406       .  A
C1233      S1237   1.808       .  S
C1234      C2621   1.400       .  A
C1235      C2620   1.400       .  A
C1235      C2622   1.388       .  A
C1235      H1242   1.084   1_556  S
C1236      C2621   1.388       .  A
C1236      S2624   1.803   1_455  S
S1237      H1240   1.404       .  S
S1238      C2622   1.803   1_655  S
S1238      H2625   1.408       .  S
H1239      S2624   1.408       .  S
C1243      C1244   1.405       .  A
C1243      C1248   1.403       .  A
C1244      C1245   1.383       .  A
C1244      H1253   1.085       .  S
C1245      C1246   1.410       .  A
C1245      S1249   1.803       .  S
C1246      C1247   1.411       .  A
C1247      C1248   1.395       .  A
C1247      H1254   1.083       .  S
C1248      S1250   1.801   1_655  S
S1249      H1252   1.407       .  S
S1250      H1251   1.406       .  S
C1255      C1256   1.414       .  A
C1255      C1260   1.415       .  A
C1256      C1257   1.403       .  A
C1256      H1265   1.083       .  S
C1257      C1258   1.406       .  A
C1257      S1261   1.798       .  S
C1258      C1259   1.407       .  A
C1259      C1260   1.397       .  A
C1259      H1266   1.085       .  S
C1260      S1262   1.803       .  S
S1261      H2650   1.406       .  S
S1262      H1263   1.408       .  S
H1264      S2647   1.406       .  S
C1267      C1268   1.391       .  A
C1267      C1272   1.427       .  A
C1268      C1269   1.387       .  A
C1268      H1277   1.084       .  S
C1269      C1270   1.416       .  A
C1269      S1273   1.801       .  S
C1270      C1271   1.386       .  A
C1271      C1272   1.379       .  A
C1271      H1278   1.083       .  S
C1272      S1274   1.816       .  S
S1273      H1276   1.397       .  S
S1274      H1275   1.406       .  S
C1279      C1280   1.414       .  A
C1279      C1284   1.414       .  A
C1280      C1281   1.410       .  A
C1280      H1289   1.083       .  S
C1281      C1282   1.413       .  A
C1281      S1285   1.802       .  S
C1282      C1283   1.403       .  A
C1283      C1284   1.397       .  A
C1283      H1290   1.080       .  S
C1284      S1286   1.788       .  S
S1285      H1288   1.407       .  S
S1286      H1287   1.407       .  S
C1291      C1292   1.396       .  A
C1291      C1296   1.410       .  A
C1292      C1293   1.387       .  A
C1292      H1301   1.081       .  S
C1293      C1294   1.409       .  A
C1293      S1297   1.800       .  S
C1294      C1295   1.393       .  A
C1295      C1296   1.382       .  A
C1295      H1302   1.083       .  S
C1296      S1298   1.811       .  S
S1297      H1300   1.405       .  S
S1298      H1299   1.407       .  S
C1303      C1424   1.467   1_554  S
C1303      C1304   1.398       .  A
C1303      C1308   1.425       .  A
C1304      C1305   1.397       .  A
C1304      H1313   1.084       .  S
C1305      C1306   1.420       .  A
C1305      S1309   1.803       .  S
C1306      C1307   1.393       .  A
C1307      C1308   1.385       .  A
C1307      H1314   1.083       .  S
C1308      S1310   1.817       .  S
S1309      H1312   1.408       .  S
S1310      H2697   1.406       .  S
H1311      S2696   1.406       .  S
C1315      C1316   1.390       .  A
C1315      C1320   1.420       .  A
C1316      C1317   1.386       .  A
C1316      H1325   1.083       .  S
C1317      C1318   1.428       .  A
C1317      S1321   1.811   1_655  S
C1318      C1319   1.394       .  A
C1319      C1320   1.401       .  A
C1319      H1326   1.083       .  S
C1320      S1322   1.791       .  S
S1321      H1324   1.407       .  S
S1322      H1323   1.395       .  S
C1327      C1328   1.410       .  A
C1327      C1332   1.413       .  A
C1328      C1329   1.402       .  A
C1328      H1337   1.082       .  S
C1329      C1330   1.413       .  A
C1329      S1333   1.803       .  S
C1330      C1331   1.409       .  A
C1331      C1332   1.395       .  A
C1331      H1338   1.081       .  S
C1332      S1334   1.803       .  S
S1333      H1336   1.407   1_455  S
S1334      H1335   1.408       .  S
C1339      C1340   1.414       .  A
C1339      C1344   1.409       .  A
C1340      C1341   1.415       .  A
C1340      H1349   1.080       .  S
C1341      C1342   1.412       .  A
C1341      S1345   1.798   1_655  S
C1342      C1343   1.415       .  A
C1343      C1344   1.401       .  A
C1343      H1350   1.084       .  S
C1344      S1346   1.806       .  S
S1345      H1348   1.406       .  S
S1346      H1347   1.407       .  S
C1351      C1352   1.419       .  A
C1351      C1356   1.413       .  A
C1352      C1353   1.398       .  A
C1352      H1361   1.078       .  S
C1353      C1354   1.402       .  A
C1353      S1357   1.807   1_455  S
C1354      C1355   1.414       .  A
C1355      C1356   1.417       .  A
C1355      H1362   1.083       .  S
C1356      S1358   1.795       .  S
S1357      H1360   1.406   1_655  S
S1358      H1359   1.405       .  S
C1363      C1364   1.407       .  A
C1363      C1368   1.411       .  A
C1364      C1365   1.399       .  A
C1364      H1373   1.076       .  S
C1365      C1366   1.407       .  A
C1365      S1369   1.800       .  S
C1366      C1367   1.411       .  A
C1367      C1368   1.410       .  A
C1367      H1374   1.080       .  S
C1368      S1370   1.803       .  S
S1369      H1372   1.406       .  S
S1370      H1371   1.406       .  S
C1375      C1376   1.413       .  A
C1375      C1380   1.412       .  A
C1376      C1377   1.401       .  A
C1376      H1385   1.083       .  S
C1377      C1378   1.410       .  A
C1377      S1381   1.800       .  S
C1378      C1379   1.412       .  A
C1379      C1380   1.399       .  A
C1379      H1386   1.082       .  S
C1380      S1382   1.811       .  S
S1381      H1384   1.408       .  S
S1382      H1383   1.407       .  S
O1387      C1395   1.266       .  A
O1387     Co1407   2.026       .  S
O1388      C1396   1.235       .  A
O1388     Co1408   1.928       .  S
O1389      C1397   1.236       .  A
O1389     Co1409   1.927       .  S
O1390      C1398   1.265       .  A
O1390     Co1410   1.817       .  S
O1391      C1397   1.277       .  A
O1391     Co1408   2.102       .  S
O1392      C1398   1.302       .  A
O1392     Co1407   2.104       .  S
O1393      C1396   1.275       .  A
O1393     Co1410   2.050       .  S
O1394      C1395   1.251       .  A
O1394     Co1409   1.949       .  S
C1395      C2713   1.487       .  S
C1396      C2704   1.472   1_455  S
C1397      C2728   1.503   1_455  S
C1398      C2677   1.442       .  S
O1399      C1412   1.232       .  A
O1399     Co1407   1.892       .  S
O1400      C1413   1.257       .  A
O1400     Co1408   1.922       .  S
O1401      C1414   1.263       .  A
O1401     Co1409   2.026       .  S
O1402      C1415   1.282       .  A
O1402     Co1410   2.016       .  S
O1403      C1415   1.285       .  A
O1403     Co1408   2.075       .  S
O1404      C1414   1.247       .  A
O1404     Co1407   1.954       .  S
O1405      C1412   1.289       .  A
O1405     Co1410   2.132       .  S
O1406      C1413   1.288       .  A
O1406     Co1409   2.031       .  S
Co1407     O1411   2.090       .  S
Co1408     O1411   2.093       .  S
Co1409     O1411   2.018       .  S
Co1410     O1411   1.927       .  S
C1412      C2752   1.477       .  S
C1413      C2692   1.468       .  S
C1414      C2761   1.488       .  S
C1415      C2737   1.513       .  S
O1416      C1424   1.261       .  A
O1416     Co1436   1.961       .  S
O1417      C1425   1.271       .  A
O1417     Co1437   2.018       .  S
O1418      C1426   1.282       .  A
O1418     Co1438   1.999   1_655  S
O1419      C1427   1.269       .  A
O1419     Co1439   1.988       .  S
O1420      C1426   1.266   1_455  A
O1420     Co1437   2.008       .  S
O1421      C1427   1.267       .  A
O1421     Co1436   2.027       .  S
O1422      C1425   1.281       .  A
O1422     Co1439   2.004       .  S
O1423      C1424   1.271       .  A
O1423     Co1438   1.978       .  S
C1425      C2641   1.491       .  S
C1426      C2605   1.483       .  S
C1427      C2653   1.446       .  S
O1428      C1441   1.267       .  A
O1428     Co1436   1.985       .  S
O1429      C1442   1.252       .  A
O1429     Co1437   1.995       .  S
O1430      C1443   1.273       .  A
O1430     Co1438   1.999       .  S
O1431      C1444   1.232       .  A
O1431     Co1439   1.922       .  S
O1432      C1444   1.254       .  A
O1432     Co1437   1.976       .  S
O1433      C1443   1.265       .  A
O1433     Co1436   1.954       .  S
O1434      C1441   1.274       .  A
O1434     Co1439   2.038       .  S
O1435      C1442   1.234       .  A
O1435     Co1438   1.933       .  S
Co1436     O1440   2.068       .  S
Co1437     O1440   2.178       .  S
Co1438     O1440   2.037       .  S
Co1439     O1440   1.946       .  S
C1441      C2668   1.492       .  S
C1442      C2629   1.460   1_455  S
C1443      C2617   1.455       .  S
C1444      C2680   1.436       .  S
O1445      C1453   1.248       .  A
O1445     Co1465   1.972       .  S
O1446      C1454   1.265       .  A
O1446     Co1466   1.976       .  S
O1447      C1455   1.236       .  A
O1447     Co1467   1.904       .  S
O1448      C1456   1.260       .  A
O1448     Co1468   1.950       .  S
O1449      C1455   1.292       .  A
O1449     Co1466   2.099       .  S
O1450      C1456   1.262       .  A
O1450     Co1465   1.980       .  S
O1451      C1454   1.281       .  A
O1451     Co1468   2.147       .  S
O1452      C1453   1.252       .  A
O1452     Co1467   1.979       .  S
C1453      C2584   1.455       .  S
C1454      C2548   1.503       .  S
C1455      C2596   1.465       .  S
O1457      C1470   1.261       .  A
O1457     Co1465   1.883       .  S
O1458      C1471   1.249       .  A
O1458     Co1466   1.805       .  S
O1459      C1472   1.261       .  A
O1459     Co1467   1.986       .  S
O1460      C1473   1.217       .  A
O1460     Co1468   1.936       .  S
O1461      C1473   1.263       .  A
O1461     Co1466   2.124       .  S
O1462      C1472   1.269       .  A
O1462     Co1465   1.999       .  S
O1463      C1470   1.286       .  A
O1463     Co1468   2.052       .  S
O1464      C1471   1.303       .  A
O1464     Co1467   2.116       .  S
Co1465     O1469   1.981       .  S
Co1466     O1469   1.940       .  S
Co1467     O1469   2.147       .  S
Co1468     O1469   2.111       .  S
C1470      C2536   1.471       .  S
C1471      C2572   1.461       .  S
C1472      C2725   1.491       .  S
C1473      C2521   1.523       .  S
O1474      C1482   1.287       .  A
O1474     Co1494   2.053       .  S
O1475      C1483   1.252       .  A
O1475     Co1495   1.794       .  S
O1476      C1484   1.247       .  A
O1476     Co1496   1.952       .  S
O1477      C1485   1.260       .  A
O1477     Co1497   1.956       .  S
O1478      C1484   1.283       .  A
O1478     Co1495   2.146       .  S
O1479      C1485   1.262       .  A
O1479     Co1494   1.959       .  S
O1480      C1483   1.334       .  A
O1480     Co1497   2.193       .  S
O1481      C1482   1.267       .  A
O1481     Co1496   1.863       .  S
C1482      C2497   1.445       .  S
C1483      C2488   1.476       .  S
C1484      C2509   1.497       .  S
C1485      C2569   1.439       .  S
O1486      C1499   1.240       .  A
O1486     Co1494   1.874       .  S
O1487      C1500   1.253       .  A
O1487     Co1495   1.926       .  S
O1488      C1501   1.250       .  A
O1488     Co1496   1.964       .  S
O1489      C1502   1.238       .  A
O1489     Co1497   1.909       .  S
O1490      C1502   1.273       .  A
O1490     Co1495   2.035       .  S
O1491      C1501   1.249       .  A
O1491     Co1494   1.953       .  S
O1492      C1499   1.291       .  A
O1492     Co1497   2.065       .  S
O1493      C1500   1.265       .  A
O1493     Co1496   2.032       .  S
Co1494     O1498   2.108       .  S
Co1495     O1498   1.851       .  S
Co1496     O1498   1.958       .  S
Co1497     O1498   2.133       .  S
C1499      C2473   1.478       .  S
C1500      C2560   1.474       .  S
C1501      C2632   1.469       .  S
C1502      C2464   1.487       .  S
O1503     Co1523   1.989       .  S
O1504      C1512   1.310       .  A
O1504     Co1524   2.135       .  S
O1505      C1513   1.269       .  A
O1506      C1514   1.293       .  A
O1506     Co1526   2.134       .  S
O1507      C1513   1.280       .  A
O1507     Co1524   1.992   1_556  S
O1508      C1514   1.251       .  A
O1508     Co1523   1.890       .  S
O1509     Co1526   1.827       .  S
O1510      C1511   1.243       .  A
C1511      C2620   1.434       .  S
C1513      C2416   1.492       .  S
C1514      C2389   1.513       .  S
O1515      C1528   1.251       .  A
O1515     Co1523   2.016       .  S
O1516      C1529   1.258       .  A
O1517      C1530   1.261       .  A
O1517     Co1525   1.959       .  S
O1518      C1531   1.315       .  A
O1518     Co1526   2.117       .  S
O1519      C1531   1.279       .  A
O1520      C1530   1.250       .  A
O1520     Co1523   1.955       .  S
O1521      C1528   1.241       .  A
O1521     Co1526   1.939       .  S
O1522      C1529   1.231       .  A
O1522     Co1525   1.933       .  S
Co1523     O1527   2.134       .  S
Co1525     O1527   1.974       .  S
Co1526     O1527   1.910       .  S
C1528      C2428   1.470       .  S
C1530      C2533   1.438   1_455  S
C1531      C2452   1.471   1_565  S
O1532      C1540   1.248       .  A
O1532     Co1552   1.942       .  S
O1533      C1541   1.266       .  A
O1533     Co1553   2.019   1_545  S
O1534      C1542   1.268       .  A
O1534     Co1554   1.987       .  S
O1535      C1543   1.237       .  A
O1535     Co1555   1.926       .  S
O1536      C1542   1.263       .  A
O1536     Co1553   1.987       .  S
O1537      C1543   1.262       .  A
O1537     Co1552   2.043       .  S
O1538      C1541   1.248   1_565  A
O1538     Co1555   1.952       .  S
O1539      C1540   1.267       .  A
O1539     Co1554   2.042       .  S
C1540      C2716   1.491       .  S
C1541      C2353   1.490       .  S
C1542      C2425   1.458       .  S
C1543      C2341   1.496       .  S
O1544      C1557   1.262       .  A
O1544     Co1552   1.960       .  S
O1545      C1558   1.253       .  A
O1545     Co1553   2.022       .  S
O1546      C1559   1.234       .  A
O1546     Co1554   1.939       .  S
O1547      C1560   1.264       .  A
O1547     Co1555   2.031       .  S
O1548      C1560   1.256       .  A
O1548     Co1553   1.958       .  S
O1549      C1559   1.271       .  A
O1549     Co1552   2.075       .  S
O1550      C1557   1.262       .  A
O1550     Co1555   2.000       .  S
O1551      C1558   1.247       .  A
O1551     Co1554   1.949       .  S
Co1552     O1556   2.138       .  S
Co1553     O1556   2.077       .  S
Co1554     O1556   2.081       .  S
Co1555     O1556   2.164       .  S
C1557      C2413   1.492       .  S
C1558      C2368   1.475       .  S
C1559      C2476   1.487   1_455  S
C1560      C2377   1.501   1_565  S
O1561      C1569   1.257       .  A
O1561     Co1581   1.933       .  S
O1562      C1570   1.283       .  A
O1562     Co1582   1.961       .  S
O1563      C1571   1.279       .  A
O1563     Co1583   2.024       .  S
O1564      C1572   1.296       .  A
O1564     Co1584   2.090       .  S
O1565      C1571   1.282       .  A
O1565     Co1582   2.030       .  S
O1566      C1572   1.265       .  A
O1566     Co1581   2.008       .  S
O1567      C1570   1.290       .  A
O1567     Co1584   2.038       .  S
O1568      C1569   1.287       .  A
O1568     Co1583   2.073       .  S
C1569      C2329   1.492       .  S
C1570      C2404   1.482       .  S
C1571      C2317   1.527       .  S
C1572      C2293   1.534       .  S
O1573      C1586   1.282       .  A
O1573     Co1581   2.061       .  S
O1574      C1587   1.274       .  A
O1574     Co1582   2.075       .  S
O1575      C1588   1.225       .  A
O1575     Co1583   1.915       .  S
O1576      C1589   1.271       .  A
O1576     Co1584   1.937       .  S
O1577      C1589   1.302       .  A
O1577     Co1582   2.121       .  S
O1578      C1588   1.267       .  A
O1578     Co1581   2.056       .  S
O1579      C1586   1.261       .  A
O1579     Co1584   1.965       .  S
O1580      C1587   1.243       .  A
O1580     Co1583   1.957       .  S
Co1581     O1585   2.117       .  S
Co1582     O1585   2.071       .  S
Co1583     O1585   1.966       .  S
Co1584     O1585   1.918       .  S
C1587      C2284   1.510       .  S
C1588      C2593   1.480       .  S
C1589      C2272   1.519       .  S
O1590      C1598   1.280       .  A
O1590     Co1610   1.890       .  S
O1591      C1599   1.309       .  A
O1591     Co1611   2.129       .  S
O1592      C1600   1.239       .  A
O1592     Co1612   1.924       .  S
O1593      C1601   1.247       .  A
O1593     Co1613   1.963       .  S
O1594      C1600   1.279       .  A
O1594     Co1611   2.107       .  S
O1595      C1601   1.274       .  A
O1595     Co1610   2.101       .  S
O1596      C1599   1.258       .  A
O1596     Co1613   1.816       .  S
O1597      C1598   1.292       .  A
O1597     Co1612   2.045       .  S
C1598      C2257   1.460       .  S
C1599      C2356   1.465       .  S
C1600      C2305   1.536       .  S
C1601      C2245   1.519       .  S
O1602      C1615   1.265       .  A
O1602     Co1610   2.001       .  S
O1603      C1616   1.256       .  A
O1603     Co1611   1.958       .  S
O1604      C1617   1.252       .  A
O1604     Co1612   1.965       .  S
O1605      C1618   1.252       .  A
O1605     Co1613   1.992       .  S
O1606      C1618   1.263       .  A
O1606     Co1611   2.004       .  S
O1607      C1617   1.266       .  A
O1607     Co1610   2.019       .  S
O1608      C1615   1.271       .  A
O1608     Co1613   2.026       .  S
O1609      C1616   1.265       .  A
O1609     Co1612   2.022       .  S
Co1610     O1614   1.989       .  S
Co1611     O1614   2.182       .  S
Co1612     O1614   2.147       .  S
Co1613     O1614   1.952       .  S
C1615      C2320   1.517       .  S
C1616      C2236   1.490       .  S
C1617      C2512   1.503       .  S
C1618      C2221   1.502       .  S
O1619      C1627   1.267       .  A
O1619     Co1639   1.995       .  S
O1620      C1628   1.280       .  A
O1620     Co1640   2.104       .  S
O1621      C1629   1.288       .  A
O1621     Co1641   2.039       .  S
O1622      C1630   1.333       .  A
O1622     Co1642   2.248       .  S
O1623      C1629   1.247       .  A
O1623     Co1640   1.912       .  S
O1624      C1630   1.266       .  A
O1624     Co1639   1.886       .  S
O1625      C1628   1.272       .  A
O1625     Co1642   1.969       .  S
O1626      C1627   1.262       .  A
O1626     Co1641   1.977       .  S
C1627      C2764   1.490       .  S
C1628      C2176   1.522       .  S
C1629      C2200   1.438       .  S
C1630      C2209   1.496       .  S
O1631      C1644   1.283       .  A
O1631     Co1639   2.073       .  S
O1632      C1645   1.278       .  A
O1632     Co1640   2.071       .  S
O1633      C1646   1.274       .  A
O1633     Co1641   1.991       .  S
O1634      C1647   1.283       .  A
O1634     Co1642   2.127       .  S
O1635      C1647   1.227       .  A
O1635     Co1640   1.925       .  S
O1636      C1646   1.274       .  A
O1636     Co1639   2.020       .  S
O1637      C1644   1.272       .  A
O1637     Co1642   1.865       .  S
O1638      C1645   1.263       .  A
O1638     Co1641   1.976       .  S
Co1639     O1643   1.983       .  S
Co1640     O1643   2.014       .  S
Co1641     O1643   2.028       .  S
Co1642     O1643   1.976       .  S
C1644      C2185   1.452       .  S
C1645      C2296   1.520   1_565  S
C1646      C2344   1.499       .  S
C1647      C2164   1.510   1_565  S
O1648      C1656   1.272       .  A
O1648     Co1668   1.994       .  S
O1649      C1657   1.281       .  A
O1649     Co1669   2.094       .  S
O1650      C1658   1.279       .  A
O1650     Co1670   2.024       .  S
O1651      C1659   1.324       .  A
O1651     Co1671   2.194       .  S
O1652      C1658   1.248       .  A
O1652     Co1669   1.916       .  S
O1653      C1659   1.269       .  A
O1653     Co1668   1.901       .  S
O1654      C1657   1.280       .  A
O1654     Co1671   2.014       .  S
O1655      C1656   1.272       .  A
O1655     Co1670   2.018       .  S
C1656      C2665   1.503       .  S
C1657      C2140   1.519       .  S
C1658      C2188   1.431       .  S
C1659      C2149   1.483       .  S
O1660     Co1668   2.061       .  S
O1661      C1674   1.279       .  A
O1661     Co1669   2.080       .  S
O1662      C1675   1.263       .  A
O1662     Co1670   1.991       .  S
O1663      C1676   1.273       .  A
O1663     Co1671   2.080       .  S
O1664      C1676   1.230       .  A
O1664     Co1669   1.913       .  S
O1665      C1675   1.274       .  A
O1665     Co1668   2.024       .  S
O1666     Co1671   1.873       .  S
O1667      C1674   1.262       .  A
O1667     Co1670   1.971       .  S
Co1668     O1672   1.995       .  S
Co1669     O1672   2.024       .  S
Co1670     O1672   2.038       .  S
Co1671     O1672   1.991       .  S
C1673      C2197   1.457       .  S
C1674      C2248   1.523   1_565  S
C1675      C2392   1.494       .  S
C1676      C2128   1.486   1_565  S
O1677      C1685   1.299       .  A
O1677     Co1697   2.076       .  S
O1678      C1686   1.266       .  A
O1678     Co1698   2.138       .  S
O1679      C1687   1.274       .  A
O1679     Co1699   2.011       .  S
O1680      C1688   1.282       .  A
O1680     Co1700   2.085       .  S
O1681      C1687   1.261       .  A
O1681     Co1698   1.969       .  S
O1682      C1688   1.250       .  A
O1682     Co1697   1.932       .  S
O1683      C1686   1.205       .  A
O1683     Co1700   1.914       .  S
O1684      C1685   1.263       .  A
O1684     Co1699   1.873       .  S
C1685      C2581   1.450       .  S
C1686      C2161   1.521       .  S
C1688      C2332   1.491       .  S
O1689      C1702   1.280       .  A
O1689     Co1697   2.031       .  S
O1690      C1703   1.264       .  A
O1690     Co1698   2.024       .  S
O1691      C1704   1.250       .  A
O1691     Co1699   1.994       .  S
O1692      C1705   1.352       .  A
O1692     Co1700   2.307       .  S
O1693      C1705   1.248       .  A
O1693     Co1698   1.745       .  S
O1694      C1704   1.240       .  A
O1694     Co1697   1.963       .  S
O1695      C1702   1.274       .  A
O1695     Co1700   1.964       .  S
O1696      C1703   1.246       .  A
O1696     Co1699   1.968       .  S
Co1697     O1701   2.111       .  S
Co1698     O1701   1.950       .  S
Co1699     O1701   1.931       .  S
Co1700     O1701   2.052       .  S
C1702      C2113   1.486       .  S
C1703      C2089   1.491       .  S
C1704      C2701   1.476       .  S
C1705      C2077   1.494       .  S
O1706      C1714   1.259       .  A
O1706     Co1726   1.991       .  S
O1707      C1715   1.268       .  A
O1707     Co1727   2.192       .  S
O1708      C1716   1.294       .  A
O1708     Co1728   2.068       .  S
O1709      C1717   1.277       .  A
O1709     Co1729   2.049       .  S
O1710      C1716   1.259       .  A
O1710     Co1727   1.970       .  S
O1711      C1717   1.240       .  A
O1711     Co1726   1.899       .  S
O1712      C1715   1.201       .  A
O1712     Co1729   1.909       .  S
O1713      C1714   1.260       .  A
O1713     Co1728   1.961       .  S
C1714      C2500   1.449       .  S
C1715      C2125   1.550       .  S
C1716      C2116   1.473       .  S
C1717      C2260   1.463       .  S
O1718      C1731   1.260       .  A
O1718     Co1726   1.965       .  S
O1719      C1732   1.255       .  A
O1719     Co1727   2.006       .  S
O1720      C1733   1.274       .  A
O1720     Co1728   1.942       .  S
O1721      C1734   1.342       .  A
O1721     Co1729   2.285       .  S
O1722      C1734   1.232       .  A
O1722     Co1727   1.774       .  S
O1723      C1733   1.276       .  A
O1723     Co1726   2.023       .  S
O1724      C1731   1.272       .  A
O1724     Co1729   1.990       .  S
O1725      C1732   1.240       .  A
O1725     Co1728   1.955       .  S
Co1726     O1730   2.124       .  S
Co1727     O1730   1.953       .  S
Co1728     O1730   1.967       .  S
Co1729     O1730   2.067       .  S
C1731      C2104   1.476       .  S
C1732      C2065   1.468       .  S
C1733      C2608   1.480       .  S
C1734      C2053   1.488       .  S
O1735      C1743   1.254       .  A
O1735     Co1755   1.945       .  S
O1736     Co1756   1.932       .  S
O1737      C1745   1.241       .  A
O1737     Co1757   1.975       .  S
O1738      C1746   1.290       .  A
O1738     Co1758   2.075   1_556  S
O1739      C1745   1.249       .  A
O1739     Co1756   2.005       .  S
O1740      C1746   1.252       .  A
O1740     Co1755   1.913       .  S
O1741      C1744   1.259       .  A
O1741     Co1758   2.096   1_556  S
O1742     Co1757   2.046       .  S
C1743      C2644   1.476       .  S
C1745      C2005   1.500       .  S
C1746      C2017   1.473       .  S
O1747      C1760   1.261       .  A
O1747     Co1755   2.033       .  S
O1748      C1761   1.290       .  A
O1748     Co1756   2.044       .  S
O1749      C1762   1.264       .  A
O1749     Co1757   1.979       .  S
O1750      C1763   1.275       .  A
O1751      C1763   1.317       .  A
O1751     Co1756   2.151       .  S
O1752      C1762   1.273       .  A
O1753      C1760   1.254   1_554  A
O1753     Co1758   1.997       .  S
O1754      C1761   1.282       .  A
O1754     Co1757   1.932       .  S
Co1756     O1759   2.151       .  S
Co1757     O1759   1.974       .  S
C1760      C2044   1.521   1_456  S
C1761      C2029   1.484       .  S
C1762      C2092   1.480   1_455  S
C1763      C2449   1.462       .  S
O1764      C1772   1.263       .  A
O1764     Co1784   1.925       .  S
O1765      C1773   1.238       .  A
O1765     Co1785   1.946       .  S
O1766      C1774   1.230       .  A
O1766     Co1786   1.911       .  S
O1767      C1775   1.270       .  A
O1767     Co1787   2.028       .  S
O1768      C1774   1.259       .  A
O1768     Co1785   2.061       .  S
O1769      C1775   1.256       .  A
O1769     Co1784   1.994       .  S
O1770      C1773   1.280       .  A
O1770     Co1787   2.108       .  S
O1771      C1772   1.290       .  A
O1771     Co1786   2.090       .  S
C1772      C2740   1.489       .  S
C1773      C2224   1.523       .  S
C1774      C1984   1.485       .  S
C1775      C2032   1.494       .  S
O1776      C1789   1.256       .  A
O1776     Co1784   2.005       .  S
O1777      C1790   1.239       .  A
O1777     Co1785   1.900       .  S
O1778      C1791   1.246       .  A
O1778     Co1786   1.959       .  S
O1779      C1792   1.232       .  A
O1779     Co1787   1.939       .  S
O1780      C1792   1.268       .  A
O1780     Co1785   2.081       .  S
O1781      C1791   1.254       .  A
O1781     Co1784   2.004       .  S
O1782      C1789   1.245       .  A
O1782     Co1787   1.962       .  S
O1783      C1790   1.285       .  A
O1783     Co1786   2.088       .  S
Co1784     O1788   2.031       .  S
Co1785     O1788   2.168       .  S
Co1786     O1788   2.177       .  S
Co1787     O1788   2.118       .  S
C1789      C1996   1.506   1_455  S
C1790      C2020   1.482       .  S
C1791      C2068   1.494   1_455  S
C1792      C2380   1.507       .  S
O1793      C1801   1.238       .  A
O1794      C1802   1.341   1_556  A
O1794     Co1814   2.221       .  S
O1795      C1803   1.300       .  A
O1795     Co1815   2.075       .  S
O1796      C1804   1.284       .  A
O1796     Co1816   2.166       .  S
O1797      C1803   1.296       .  A
O1797     Co1814   1.990       .  S
O1798      C1804   1.227       .  A
O1798     Co1813   1.914       .  S
O1799      C1802   1.252       .  A
O1800      C1801   1.265       .  A
O1800     Co1815   2.027       .  S
C1801      C2437   1.475       .  S
C1803      C1948   1.507       .  S
C1804      C2041   1.502   1_565  S
O1805      C1818   1.281       .  A
O1805     Co1813   2.021       .  S
O1806      C1819   1.259       .  A
O1806     Co1814   2.099       .  S
O1807     Co1815   1.991   1_554  S
O1808     Co1816   2.186       .  S
O1809      C1821   1.272       .  A
O1809     Co1814   1.851       .  S
O1810      C1820   1.275       .  A
O1810     Co1813   2.048       .  S
O1811      C1818   1.277       .  A
O1811     Co1816   1.974       .  S
O1812      C1819   1.233       .  A
O1812     Co1815   1.931       .  S
Co1814     O1817   2.054       .  S
Co1815     O1817   2.004       .  S
C1818      C1957   1.466       .  S
C1819      C1969   1.497       .  S
C1820      C2524   1.517       .  S
C1821      C2137   1.508       .  S
O1822      C1830   1.236       .  A
O1822     Co1842   1.933       .  S
O1823      C1831   1.335       .  A
O1823     Co1843   2.194       .  S
O1824      C1832   1.285       .  A
O1824     Co1844   2.020       .  S
O1825      C1833   1.272       .  A
O1825     Co1845   2.151       .  S
O1826      C1832   1.290       .  A
O1826     Co1843   1.975       .  S
O1827      C1833   1.214       .  A
O1827     Co1842   1.915       .  S
O1828      C1831   1.258       .  A
O1828     Co1845   1.860       .  S
O1829      C1830   1.268       .  A
O1829     Co1844   2.039       .  S
C1830      C2365   1.484       .  S
C1831      C2056   1.494   1_565  S
C1832      C1960   1.490       .  S
C1833      C1993   1.481   1_565  S
O1834      C1847   1.293       .  A
O1834     Co1842   2.075       .  S
O1835      C1848   1.268       .  A
O1835     Co1843   2.103       .  S
O1836      C1849   1.273       .  A
O1836     Co1844   1.975       .  S
O1837      C1850   1.342       .  A
O1837     Co1845   2.198       .  S
O1838      C1850   1.268       .  A
O1838     Co1843   1.841       .  S
O1839      C1849   1.265       .  A
O1839     Co1842   2.001       .  S
O1840      C1847   1.288       .  A
O1840     Co1845   1.988       .  S
O1841      C1848   1.255       .  A
O1841     Co1844   1.976       .  S
Co1842     O1846   1.974       .  S
Co1843     O1846   2.013       .  S
Co1844     O1846   2.023       .  S
Co1845     O1846   2.006       .  S
C1847      C1945   1.503       .  S
C1848      C1933   1.512       .  S
C1849      C2461   1.483       .  S
C1850      C2173   1.522       .  S
O1851      C1859   1.267       .  A
O1851     Co1871   1.933       .  S
O1852      C1860   1.233       .  A
O1852     Co1872   1.941       .  S
O1853      C1861   1.256       .  A
O1853     Co1873   1.966       .  S
O1854      C1862   1.237       .  A
O1854     Co1874   1.921       .  S
O1855      C1861   1.271       .  A
O1855     Co1872   2.035       .  S
O1856      C1862   1.268       .  A
O1856     Co1871   2.050       .  S
O1857      C1860   1.275       .  A
O1857     Co1874   2.123       .  S
O1858      C1859   1.288       .  A
O1858     Co1873   2.060       .  S
C1859      C2749   1.494       .  S
C1860      C1936   1.514       .  S
C1861      C2212   1.489       .  S
C1862      C1924   1.469       .  S
O1863      C1876   1.252       .  A
O1863     Co1871   1.953       .  S
O1864      C1877   1.266       .  A
O1864     Co1872   1.975       .  S
O1865      C1878   1.276       .  A
O1865     Co1873   1.947       .  S
O1866      C1879   1.234       .  A
O1866     Co1874   1.929       .  S
O1867      C1879   1.285       .  A
O1867     Co1872   2.134       .  S
O1868      C1878   1.288       .  A
O1868     Co1871   2.073       .  S
O1869      C1876   1.283       .  A
O1869     Co1874   2.090       .  S
O1870      C1877   1.261       .  A
O1870     Co1873   1.983       .  S
Co1871     O1875   2.076       .  S
Co1872     O1875   2.114       .  S
Co1873     O1875   2.063       .  S
Co1874     O1875   2.070       .  S
C1876      C2281   1.513       .  S
C1877      C1909   1.494       .  S
C1878      C1981   1.496       .  S
C1879      C2545   1.535       .  S
O1880      C1888   1.292       .  A
O1880     Co1900   2.075       .  S
O1881      C1889   1.236       .  A
O1881     Co1901   1.947       .  S
O1882      C1890   1.247       .  A
O1882     Co1902   1.989       .  S
O1883      C1891   1.261       .  A
O1883     Co1903   1.939       .  S
O1884      C1890   1.266       .  A
O1884     Co1901   2.044       .  S
O1885      C1891   1.288       .  A
O1885     Co1900   2.055       .  S
O1886      C1889   1.270       .  A
O1886     Co1903   2.069       .  S
O1887      C1888   1.253       .  A
O1887     Co1902   1.883       .  S
C1888      C2656   1.443       .  S
C1889      C1972   1.481       .  S
C1890      C2152   1.494       .  S
C1891      C1912   1.478       .  S
O1892      C1905   1.255       .  A
O1892     Co1900   2.000       .  S
O1893     Co1901   1.982       .  S
O1894      C1907   1.291       .  A
O1894     Co1902   2.068       .  S
O1895      C1908   1.230       .  A
O1895     Co1903   1.921       .  S
O1896      C1908   1.278       .  A
O1896     Co1901   2.068       .  S
O1897      C1907   1.278       .  A
O1897     Co1900   1.942       .  S
O1898      C1905   1.256       .  A
O1898     Co1903   2.007       .  S
O1899      C1906   1.257       .  A
Co1900     O1904   2.039       .  S
Co1901     O1904   2.075       .  S
Co1902     O1904   1.977       .  S
Co1903     O1904   2.052       .  S
C1905      C2233   1.470       .  S
C1906      C1921   1.469       .  S
C1907      C2008   1.497       .  S
C1908      C2485   1.483       .  S
C1909      C1910   1.418       .  A
C1909      C1914   1.410       .  A
C1910      C1911   1.396       .  A
C1910      H1919   1.077       .  S
C1911      C1912   1.401       .  A
C1911      S1915   1.804       .  S
C1912      C1913   1.414       .  A
C1913      C1914   1.401       .  A
C1913      H1920   1.084       .  S
C1914      S1916   1.801       .  S
S1915      H1918   1.407       .  S
S1916      H1917   1.408       .  S
C1921      C1922   1.392       .  A
C1921      C1926   1.422       .  A
C1922      C1923   1.390       .  A
C1922      H1931   1.082       .  S
C1923      C1924   1.422       .  A
C1923      S1927   1.809       .  S
C1924      C1925   1.395       .  A
C1925      C1926   1.400       .  A
C1925      H1932   1.082       .  S
C1926      S1928   1.810       .  S
S1927      H1930   1.406       .  S
S1928      H1929   1.407       .  S
C1933      C1934   1.417       .  A
C1933      C1938   1.413       .  A
C1934      C1935   1.424       .  A
C1934      H1943   1.083       .  S
C1935      C1936   1.418       .  A
C1935      S1939   1.800       .  S
C1936      C1937   1.413       .  A
C1937      C1938   1.402       .  A
C1937      H1944   1.084       .  S
C1938      S1940   1.804       .  S
S1939      H1942   1.403       .  S
S1940      H1941   1.407       .  S
C1945      C1946   1.407       .  A
C1945      C1950   1.417       .  A
C1946      C1947   1.410       .  A
C1946      H1955   1.081       .  S
C1947      C1948   1.421       .  A
C1947      S1951   1.802       .  S
C1948      C1949   1.409       .  A
C1949      C1950   1.409       .  A
C1949      H1956   1.084       .  S
C1950      S1952   1.796       .  S
S1951      H1954   1.403       .  S
S1952      H1953   1.406       .  S
C1957      C1958   1.391       .  A
C1957      C1962   1.403       .  A
C1958      C1959   1.399       .  A
C1958      H1967   1.082       .  S
C1959      C1960   1.431       .  A
C1959      S1963   1.801       .  S
C1960      C1961   1.402       .  A
C1961      C1962   1.397       .  A
C1961      H1968   1.082       .  S
C1962      S1964   1.789       .  S
S1963      H1966   1.408       .  S
S1964      H1965   1.407       .  S
C1969      C1970   1.414       .  A
C1969      C1974   1.420       .  A
C1970      C1971   1.417       .  A
C1970      H1979   1.083       .  S
C1971      C1972   1.414       .  A
C1971      S1975   1.801       .  S
C1972      C1973   1.399       .  A
C1973      C1974   1.385       .  A
C1973      H1980   1.079       .  S
C1974      S1976   1.807       .  S
S1975      H1978   1.406       .  S
S1976      H1977   1.408   1_556  S
C1981      C1982   1.414       .  A
C1981      C1986   1.415       .  A
C1982      C1983   1.418       .  A
C1982      H1991   1.077       .  S
C1983      C1984   1.413       .  A
C1983      S1987   1.801       .  S
C1984      C1985   1.399       .  A
C1985      C1986   1.383       .  A
C1985      H1992   1.086       .  S
C1986      S1988   1.792       .  S
S1987      H1990   1.405       .  S
S1988      H1989   1.404       .  S
C1993      C1994   1.413       .  A
C1993      C1998   1.407       .  A
C1994      C1995   1.413       .  A
C1994      H2003   1.084       .  S
C1995      C1996   1.415       .  A
C1995      S1999   1.797       .  S
C1996      C1997   1.415       .  A
C1997      C1998   1.402       .  A
C1997      H2004   1.082       .  S
C1998      S2000   1.802       .  S
S1999      H2002   1.407       .  S
S2000      H2001   1.407   1_545  S
C2005      C2010   1.417       .  A
C2006      C2007   1.402       .  A
C2006      H2015   1.084       .  S
C2007      C2008   1.415       .  A
C2007      S2011   1.801       .  S
C2008      C2009   1.411       .  A
C2009      H2016   1.084       .  S
C2010      S2012   1.801       .  S
S2011      H2014   1.404       .  S
S2012      H2013   1.407       .  S
C2017      C2018   1.406       .  A
C2017      C2022   1.416       .  A
C2018      C2019   1.407       .  A
C2018      H2027   1.084       .  S
C2019      C2020   1.415       .  A
C2019      S2023   1.798       .  S
C2020      C2021   1.404       .  A
C2021      C2022   1.403       .  A
C2021      H2028   1.084       .  S
C2022      S2024   1.804       .  S
S2023      H2026   1.405       .  S
S2024      H2025   1.401       .  S
C2029      C2030   1.397       .  A
C2029      C2034   1.420       .  A
C2030      C2031   1.402       .  A
C2030      H2039   1.084       .  S
C2031      C2032   1.421       .  A
C2031      S2035   1.794       .  S
C2032      C2033   1.401       .  A
C2033      C2034   1.407       .  A
C2033      H2040   1.084       .  S
C2034      S2036   1.804       .  S
S2035      H2038   1.401       .  S
S2036      H2037   1.406       .  S
C2041      C2046   1.414       .  A
C2042      C2043   1.412       .  A
C2042      H2051   1.084       .  S
C2043      C2044   1.421   1_556  A
C2043      S2047   1.800       .  S
C2045      C2046   1.414       .  A
C2045      H2052   1.081       .  S
C2046      S2048   1.801       .  S
S2047      H2050   1.408       .  S
S2048      H2049   1.400       .  S
C2053      C2054   1.423       .  A
C2053      C2058   1.411       .  A
C2054      C2055   1.405       .  A
C2054      H2063   1.075       .  S
C2055      C2056   1.403       .  A
C2055      S2059   1.805       .  S
C2056      C2057   1.421       .  A
C2057      C2058   1.411       .  A
C2057      H2064   1.068       .  S
C2058      S2060   1.804       .  S
S2059      H2062   1.407       .  S
S2060      H2061   1.407       .  S
C2065      C2066   1.397       .  A
C2065      C2070   1.407       .  A
C2066      C2067   1.398       .  A
C2066      H2075   1.082       .  S
C2067      C2068   1.414       .  A
C2067      S2071   1.779       .  S
C2068      C2069   1.411       .  A
C2069      C2070   1.395       .  A
C2069      H2076   1.083   1_655  S
C2070      S2072   1.801       .  S
S2071      H2074   1.405       .  S
S2072      H2073   1.407       .  S
C2077      C2078   1.406       .  A
C2077      C2082   1.427       .  A
C2078      C2079   1.417       .  A
C2078      H2087   1.077       .  S
C2079      C2080   1.427       .  A
C2080      C2081   1.400       .  A
C2081      C2082   1.414       .  A
C2081      H2088   1.066       .  S
C2082      S2084   1.800       .  S
S2083      H2086   1.407   1_565  S
S2084      H2085   1.407       .  S
C2089      C2090   1.409       .  A
C2089      C2094   1.421       .  A
C2090      C2091   1.408       .  A
C2090      H2099   1.081       .  S
C2091      C2092   1.411       .  A
C2091      S2095   1.797       .  S
C2092      C2093   1.401       .  A
C2093      C2094   1.395       .  A
C2093      H2100   1.083       .  S
C2094      S2096   1.814       .  S
S2095      H2098   1.405   1_655  S
S2096      H2097   1.407       .  S
C2101      C2102   1.412   1_554  A
C2101      C2106   1.408   1_554  A
C2102      C2103   1.401       .  A
C2103      C2104   1.407       .  A
C2103      S2107   1.800       .  S
C2104      C2105   1.411       .  A
C2105      C2106   1.396       .  A
C2105      H2112   1.085       .  S
C2106      S2108   1.800       .  S
S2107      H2110   1.407       .  S
C2113      C2114   1.403       .  A
C2113      C2118   1.422       .  A
C2114      C2115   1.400       .  A
C2114      H2123   1.084       .  S
C2115      C2116   1.415       .  A
C2115      S2119   1.805       .  S
C2116      C2117   1.397       .  A
C2117      C2118   1.399       .  A
C2117      H2124   1.084       .  S
C2118      S2120   1.803       .  S
S2119      H2122   1.406       .  S
S2120      H2121   1.406       .  S
C2125      C2126   1.418       .  A
C2125      C2130   1.422       .  A
C2126      C2127   1.390       .  A
C2126      H2135   1.069       .  S
C2127      C2128   1.393       .  A
C2127      S2131   1.806       .  S
C2128      C2129   1.419       .  A
C2129      C2130   1.430       .  A
C2129      H2136   1.080   1_545  S
C2130      S2132   1.786       .  S
S2131      H2134   1.408       .  S
S2132      H2133   1.407   1_545  S
C2137      C2138   1.410       .  A
C2137      C2142   1.420       .  A
C2138      C2139   1.426       .  A
C2138      H2147   1.083       .  S
C2139      C2140   1.422       .  A
C2139      S2143   1.791       .  S
C2140      C2141   1.402       .  A
C2141      C2142   1.405       .  A
C2141      H2148   1.072       .  S
C2142      S2144   1.810       .  S
S2143      H2146   1.406       .  S
S2144      H2145   1.406   1_565  S
C2149      C2150   1.396       .  A
C2149      C2154   1.413       .  A
C2150      C2151   1.395       .  A
C2150      H2159   1.084       .  S
C2151      C2152   1.420       .  A
C2151      S2155   1.806       .  S
C2152      C2153   1.410       .  A
C2153      C2154   1.414       .  A
S2155      H2158   1.407       .  S
S2156      H2157   1.405       .  S
C2161      C2162   1.430       .  A
C2161      C2166   1.405       .  A
C2162      C2163   1.411       .  A
C2162      H2171   1.073       .  S
C2163      C2164   1.400       .  A
C2163      S2167   1.800       .  S
C2164      C2165   1.424       .  A
C2165      C2166   1.413       .  A
C2165      H2172   1.081   1_545  S
C2166      S2168   1.802       .  S
S2167      H2170   1.405       .  S
S2168      H2169   1.403       .  S
C2173      C2174   1.429       .  A
C2173      C2178   1.405       .  A
C2174      C2175   1.411       .  A
C2174      H2183   1.081       .  S
C2175      C2176   1.406       .  A
C2175      S2179   1.808       .  S
C2176      C2177   1.430       .  A
C2177      C2178   1.414       .  A
C2177      H2184   1.080       .  S
C2178      S2180   1.798       .  S
S2179      H2182   1.407       .  S
S2180      H2181   1.407       .  S
C2185      C2186   1.392       .  A
C2185      C2190   1.424       .  A
C2186      C2187   1.378       .  A
C2186      H2195   1.083       .  S
C2187      C2188   1.415       .  A
C2187      S2191   1.808       .  S
C2188      C2189   1.383       .  A
C2189      C2190   1.386       .  A
C2189      H2196   1.084       .  S
C2190      S2192   1.804       .  S
S2191      H2194   1.406       .  S
S2192      H2193   1.407       .  S
C2197      C2198   1.395       .  A
C2197      C2202   1.423       .  A
C2198      C2199   1.379       .  A
C2198      H2207   1.082       .  S
C2199      C2200   1.418       .  A
C2199      S2203   1.813       .  S
C2200      C2201   1.384       .  A
C2201      C2202   1.384       .  A
C2201      H2208   1.084       .  S
C2202      S2204   1.798       .  S
S2203      H2206   1.407       .  S
S2204      H2205   1.407       .  S
C2209      C2210   1.410       .  A
C2209      C2214   1.418       .  A
C2210      C2211   1.412       .  A
C2210      H2219   1.084       .  S
C2211      C2212   1.413       .  A
C2211      S2215   1.803       .  S
C2212      C2213   1.403       .  A
C2213      C2214   1.403       .  A
C2213      H2220   1.083       .  S
C2214      S2216   1.802       .  S
S2215      H2218   1.406       .  S
S2216      H2217   1.402       .  S
C2221      C2222   1.391       .  A
C2221      C2226   1.430       .  A
C2222      C2223   1.395       .  A
C2222      H2231   1.085       .  S
C2223      C2224   1.421       .  A
C2223      S2227   1.776       .  S
C2224      C2225   1.403       .  A
C2225      C2226   1.421       .  A
C2225      H2232   1.080       .  S
C2226      S2228   1.799       .  S
S2227      H2230   1.408       .  S
S2228      H2229   1.385       .  S
C2233      C2234   1.399       .  A
C2233      C2238   1.410       .  A
C2234      C2235   1.400       .  A
C2234      H2243   1.084       .  S
C2235      C2236   1.418       .  A
C2235      S2239   1.791       .  S
C2236      C2237   1.408       .  A
C2237      C2238   1.395       .  A
C2237      H2244   1.084       .  S
C2238      S2240   1.802       .  S
S2239      H2242   1.400       .  S
S2240      H2241   1.406       .  S
C2245      C2246   1.412       .  A
C2245      C2250   1.424       .  A
C2246      C2247   1.420       .  A
C2246      H2255   1.082       .  S
C2247      C2248   1.423       .  A
C2247      S2251   1.797       .  S
C2248      C2249   1.409       .  A
C2249      C2250   1.404       .  A
C2249      H2256   1.083       .  S
C2250      S2252   1.802       .  S
S2251      H2254   1.408   1_545  S
S2252      H2253   1.394       .  S
C2257      C2258   1.409       .  A
C2257      C2262   1.400       .  A
C2258      C2259   1.397       .  A
C2258      H2267   1.083       .  S
C2259      C2260   1.404       .  A
C2259      S2263   1.802       .  S
C2260      C2261   1.411       .  A
C2261      C2262   1.389       .  A
C2261      H2268   1.072       .  S
C2262      S2264   1.808       .  S
S2263      H2266   1.407       .  S
S2264      H2265   1.408       .  S
C2269      C2270   1.411       .  A
C2269      C2274   1.417       .  A
C2270      C2271   1.400       .  A
C2270      H2279   1.084       .  S
C2271      C2272   1.417       .  A
C2271      S2275   1.801       .  S
C2272      C2273   1.420       .  A
C2273      C2274   1.423       .  A
C2273      H2280   1.083       .  S
S2275      H2278   1.406       .  S
S2276      H2277   1.400       .  S
C2281      C2282   1.403       .  A
C2281      C2286   1.428       .  A
C2282      C2283   1.412       .  A
C2282      H2291   1.084       .  S
C2283      C2284   1.427       .  A
C2283      S2287   1.805       .  S
C2284      C2285   1.404       .  A
C2285      C2286   1.416       .  A
C2285      H2292   1.084       .  S
C2286      S2288   1.803       .  S
S2287      H2290   1.406       .  S
S2288      H2289   1.407       .  S
C2293      C2294   1.416       .  A
C2293      C2298   1.428       .  A
C2294      C2295   1.416       .  A
C2294      H2303   1.083       .  S
C2295      C2296   1.417       .  A
C2295      S2299   1.791       .  S
C2296      C2297   1.405       .  A
C2297      C2298   1.408       .  A
C2297      H2304   1.084       .  S
C2298      S2300   1.788       .  S
S2299      H2302   1.408   1_545  S
S2300      H2301   1.394       .  S
C2305      C2306   1.412       .  A
C2305      C2310   1.433       .  A
C2306      C2307   1.428       .  A
C2306      H2315   1.082       .  S
C2307      C2308   1.425       .  A
C2307      S2311   1.806       .  S
C2308      C2309   1.405       .  A
C2309      C2310   1.413       .  A
C2309      H2316   1.082       .  S
C2310      S2312   1.811       .  S
S2312      H2313   1.407       .  S
C2317      C2318   1.412       .  A
C2317      C2322   1.424       .  A
C2318      C2319   1.409       .  A
C2318      H2327   1.084       .  S
C2319      C2320   1.421       .  A
C2319      S2323   1.805       .  S
C2320      C2321   1.410       .  A
C2321      C2322   1.421       .  A
C2321      H2328   1.083       .  S
C2322      S2324   1.794       .  S
S2323      H2326   1.402       .  S
S2324      H2325   1.406       .  S
C2329      C2330   1.416       .  A
C2329      C2334   1.408       .  A
C2330      C2331   1.406       .  A
C2330      H2339   1.084       .  S
C2331      C2332   1.408       .  A
C2331      S2335   1.799       .  S
C2332      C2333   1.414       .  A
C2333      C2334   1.404       .  A
C2333      H2340   1.084       .  S
C2334      S2336   1.799       .  S
S2335      H2338   1.404       .  S
S2336      H2337   1.406       .  S
C2341      C2342   1.412       .  A
C2341      C2346   1.414       .  A
C2342      C2343   1.397       .  A
C2342      H2351   1.084       .  S
C2343      C2344   1.412       .  A
C2343      S2347   1.803       .  S
C2344      C2345   1.414       .  A
C2345      C2346   1.411       .  A
C2345      H2352   1.083       .  S
C2346      S2348   1.804       .  S
S2347      H2350   1.408       .  S
S2348      H2349   1.396       .  S
C2353      C2354   1.411       .  A
C2353      C2358   1.408       .  A
C2354      C2355   1.384       .  A
C2354      H2363   1.082   1_545  S
C2355      C2356   1.401       .  A
C2355      S2359   1.796       .  S
C2356      C2357   1.413       .  A
C2357      C2358   1.413       .  A
C2357      H2364   1.084       .  S
C2358      S2360   1.795       .  S
S2359      H2362   1.406       .  S
S2360      H2361   1.407       .  S
C2365      C2366   1.397       .  A
C2365      C2370   1.428       .  A
C2366      C2367   1.393       .  A
C2366      H2375   1.084       .  S
C2367      C2368   1.413   1_655  A
C2367      S2371   1.789       .  S
C2368      C2369   1.395       .  A
C2369      C2370   1.402   1_455  A
C2369      H2376   1.084       .  S
C2370      S2372   1.805       .  S
S2371      H2374   1.404   1_655  S
S2372      H2373   1.408       .  S
C2377      C2378   1.398       .  A
C2377      C2382   1.417       .  A
C2378      C2379   1.392       .  A
C2378      H2387   1.083   1_545  S
C2379      C2380   1.429       .  A
C2379      S2383   1.811       .  S
C2380      C2381   1.412       .  A
C2381      C2382   1.420       .  A
C2381      H2388   1.083       .  S
C2382      S2384   1.799       .  S
S2383      H2386   1.408       .  S
S2384      H2385   1.407       .  S
C2389      C2390   1.416       .  A
C2389      C2394   1.416       .  A
C2390      H2399   1.082       .  S
C2391      C2392   1.408       .  A
C2391      S2395   1.804       .  S
C2392      C2393   1.412       .  A
C2393      H2400   1.083       .  S
C2394      S2396   1.794       .  S
S2395      H2398   1.405       .  S
S2396      H2397   1.407       .  S
C2401      C2402   1.370       .  A
C2401      C2406   1.428       .  A
C2402      C2403   1.384       .  A
C2402      H2411   1.082       .  S
C2403      C2404   1.447       .  A
C2403      S2407   1.808       .  S
C2404      C2405   1.390       .  A
C2405      C2406   1.392       .  A
C2405      H2412   1.082       .  S
C2406      S2408   1.815       .  S
S2407      H2410   1.408       .  S
S2408      H2409   1.406       .  S
C2413      C2414   1.398       .  A
C2413      C2418   1.422       .  A
C2414      C2415   1.393       .  A
C2414      H2423   1.082       .  S
C2415      C2416   1.430       .  A
C2415      S2419   1.815       .  S
C2416      C2417   1.402       .  A
C2417      C2418   1.404       .  A
C2417      H2424   1.084       .  S
C2418      S2420   1.796       .  S
S2419      H2422   1.407       .  S
S2420      H2421   1.407       .  S
C2425      C2426   1.398       .  A
C2425      C2430   1.409       .  A
C2426      C2427   1.380       .  A
C2426      H2435   1.085       .  S
C2427      C2428   1.414       .  A
C2427      S2431   1.806       .  S
C2428      C2429   1.410       .  A
C2429      C2430   1.405       .  A
C2429      H2436   1.084       .  S
C2430      S2432   1.805       .  S
S2431      H2434   1.406       .  S
S2432      H2433   1.405       .  S
C2437      C2438   1.395       .  A
C2437      C2442   1.422       .  A
C2438      C2439   1.393       .  A
C2438      H2447   1.084       .  S
C2439      C2440   1.422       .  A
C2439      S2443   1.798       .  S
C2441      H2448   1.084   1_655  S
S2443      H2446   1.400       .  S
C2449      C2450   1.390       .  A
C2449      C2454   1.413       .  A
C2450      C2451   1.385       .  A
C2450      H2459   1.081       .  S
C2451      C2452   1.419       .  A
C2451      S2455   1.799       .  S
C2452      C2453   1.401       .  A
C2453      C2454   1.404       .  A
C2453      H2460   1.084   1_545  S
C2454      S2456   1.797       .  S
S2455      H2458   1.407       .  S
S2456      H2457   1.407       .  S
C2461      C2462   1.388       .  A
C2461      C2466   1.419       .  A
C2462      C2463   1.388       .  A
C2462      H2471   1.083       .  S
C2463      C2464   1.431       .  A
C2463      S2467   1.804       .  S
C2464      C2465   1.405       .  A
C2465      C2466   1.412       .  A
C2465      H2472   1.078       .  S
C2466      S2468   1.800       .  S
S2467      H2470   1.407       .  S
S2468      H2469   1.407       .  S
C2473      C2474   1.416       .  A
C2473      C2478   1.408       .  A
C2474      C2475   1.406       .  A
C2474      H2483   1.080       .  S
C2475      C2476   1.404       .  A
C2475      S2479   1.804       .  S
C2476      C2477   1.406       .  A
C2477      C2478   1.408       .  A
C2477      H2484   1.074       .  S
C2478      S2480   1.802       .  S
S2479      H2482   1.405   1_655  S
S2480      H2481   1.407       .  S
C2485      C2486   1.389       .  A
C2485      C2490   1.426       .  A
C2486      C2487   1.393       .  A
C2486      H2495   1.076       .  S
C2487      C2488   1.433       .  A
C2487      S2491   1.816       .  S
C2488      C2489   1.397       .  A
C2489      C2490   1.402       .  A
C2489      H2496   1.084       .  S
C2490      S2492   1.803       .  S
S2491      H2494   1.406       .  S
S2492      H2493   1.408       .  S
C2497      C2498   1.397       .  A
C2497      C2502   1.411       .  A
C2498      C2499   1.388       .  A
C2498      H2507   1.084       .  S
C2499      C2500   1.405       .  A
C2499      S2503   1.804       .  S
C2500      C2501   1.399       .  A
C2501      C2502   1.392       .  A
C2501      H2508   1.084       .  S
C2502      S2504   1.804       .  S
S2503      H2506   1.407       .  S
S2504      H2505   1.407       .  S
C2509      C2510   1.396       .  A
C2509      C2514   1.422       .  A
C2510      C2511   1.403       .  A
C2510      H2519   1.078       .  S
C2511      C2512   1.425       .  A
C2511      S2515   1.813       .  S
C2512      C2513   1.405       .  A
C2513      C2514   1.416       .  A
C2513      H2520   1.083       .  S
C2514      S2516   1.796       .  S
S2515      H2518   1.405       .  S
S2516      H2517   1.402       .  S
C2521      C2522   1.415       .  A
C2521      C2526   1.420       .  A
C2522      C2523   1.400       .  A
C2522      H2531   1.070       .  S
C2523      C2524   1.411       .  A
C2524      C2525   1.419       .  A
C2525      C2526   1.429       .  A
C2525      H2532   1.083       .  S
C2526      S2528   1.801       .  S
S2527      H2530   1.408   1_554  S
S2528      H2529   1.407       .  S
C2533      C2534   1.398       .  A
C2533      C2538   1.399       .  A
C2534      C2535   1.394       .  A
C2534      H2543   1.085       .  S
C2535      C2536   1.418       .  A
C2535      S2539   1.795       .  S
C2536      C2537   1.408       .  A
C2537      C2538   1.387       .  A
C2537      H2544   1.078       .  S
C2538      S2540   1.803   1_655  S
S2539      H2542   1.400       .  S
S2540      H2541   1.407       .  S
C2545      C2546   1.422       .  A
C2545      C2550   1.420       .  A
C2546      C2547   1.409       .  A
C2546      H2555   1.083       .  S
C2547      C2548   1.408       .  A
C2547      S2551   1.802       .  S
C2548      C2549   1.419       .  A
C2549      C2550   1.423       .  A
C2549      H2556   1.082       .  S
C2550      S2552   1.798       .  S
S2551      H2554   1.407       .  S
S2552      H2553   1.406       .  S
C2557      C2558   1.399       .  A
C2557      C2562   1.403       .  A
C2558      C2559   1.401       .  A
C2558      H2567   1.081       .  S
C2559      C2560   1.415       .  A
C2559      S2563   1.791       .  S
C2560      C2561   1.403       .  A
C2561      C2562   1.379       .  A
C2561      H2568   1.082       .  S
C2562      S2564   1.807       .  S
S2563      H2566   1.408       .  S
S2564      H2565   1.407       .  S
C2569      C2570   1.391       .  A
C2569      C2574   1.409       .  A
C2570      C2571   1.379       .  A
C2570      H2579   1.086       .  S
C2571      C2572   1.420       .  A
C2571      S2575   1.811       .  S
C2572      C2573   1.403       .  A
C2573      C2574   1.398       .  A
C2573      H2580   1.083       .  S
C2574      S2576   1.804       .  S
S2575      H2578   1.409       .  S
S2576      H2577   1.407       .  S
C2581      C2582   1.398       .  A
C2581      C2586   1.411       .  A
C2582      C2583   1.391       .  A
C2582      H2591   1.084       .  S
C2583      C2584   1.406       .  A
C2583      S2587   1.799       .  S
C2584      C2585   1.400       .  A
C2585      C2586   1.391       .  A
C2585      H2592   1.083       .  S
C2586      S2588   1.805       .  S
S2587      H2590   1.408       .  S
S2588      H2589   1.404       .  S
C2593      C2594   1.390       .  A
C2593      C2598   1.435       .  A
C2594      C2595   1.392       .  A
C2594      H2603   1.084       .  S
C2595      C2596   1.415       .  A
C2595      S2599   1.789       .  S
C2596      C2597   1.384       .  A
C2597      C2598   1.400       .  A
C2597      H2604   1.083       .  S
C2598      S2600   1.801       .  S
S2599      H2602   1.403       .  S
S2600      H2601   1.408       .  S
C2605      C2606   1.404       .  A
C2605      C2610   1.409       .  A
C2606      C2607   1.396       .  A
C2606      H2615   1.063       .  S
C2607      C2608   1.405       .  A
C2607      S2611   1.803       .  S
C2608      C2609   1.412       .  A
C2609      C2610   1.405       .  A
C2609      H2616   1.084       .  S
C2610      S2612   1.802       .  S
S2611      H2614   1.406       .  S
S2612      H2613   1.406       .  S
C2617      C2618   1.403       .  A
C2617      C2622   1.410       .  A
C2618      C2619   1.378       .  A
C2618      H2627   1.084       .  S
C2619      C2620   1.406       .  A
C2619      S2623   1.808       .  S
C2621      H2628   1.084       .  S
S2623      H2626   1.404       .  S
C2629      C2630   1.405       .  A
C2629      C2634   1.403       .  A
C2630      C2631   1.383       .  A
C2630      H2639   1.085       .  S
C2631      C2632   1.410       .  A
C2631      S2635   1.803       .  S
C2632      C2633   1.411       .  A
C2633      C2634   1.395       .  A
C2633      H2640   1.083       .  S
C2634      S2636   1.801   1_655  S
S2635      H2638   1.407       .  S
S2636      H2637   1.406       .  S
C2641      C2642   1.414       .  A
C2641      C2646   1.415       .  A
C2642      C2643   1.403       .  A
C2642      H2651   1.083       .  S
C2643      C2644   1.406       .  A
C2643      S2647   1.798   1_556  S
C2644      C2645   1.407       .  A
C2645      C2646   1.397       .  A
C2645      H2652   1.085       .  S
C2646      S2648   1.803       .  S
S2648      H2649   1.408       .  S
C2653      C2654   1.391       .  A
C2653      C2658   1.427       .  A
C2654      C2655   1.387       .  A
C2654      H2663   1.084       .  S
C2655      C2656   1.416       .  A
C2655      S2659   1.801       .  S
C2656      C2657   1.386       .  A
C2657      C2658   1.379       .  A
C2657      H2664   1.083       .  S
C2658      S2660   1.816       .  S
S2659      H2662   1.397       .  S
S2660      H2661   1.406       .  S
C2665      C2666   1.414       .  A
C2665      C2670   1.414       .  A
C2666      C2667   1.410       .  A
C2666      H2675   1.083       .  S
C2667      C2668   1.413       .  A
C2667      S2671   1.802       .  S
C2668      C2669   1.403       .  A
C2669      C2670   1.397       .  A
C2669      H2676   1.080       .  S
C2670      S2672   1.788       .  S
S2671      H2674   1.407       .  S
S2672      H2673   1.407       .  S
C2677      C2678   1.396       .  A
C2677      C2682   1.410       .  A
C2678      C2679   1.387       .  A
C2678      H2687   1.081       .  S
C2679      C2680   1.409       .  A
C2679      S2683   1.800       .  S
C2680      C2681   1.393       .  A
C2681      C2682   1.382       .  A
C2681      H2688   1.083       .  S
C2682      S2684   1.811       .  S
S2683      H2686   1.405       .  S
S2684      H2685   1.407       .  S
C2689      C2690   1.398       .  A
C2689      C2694   1.425       .  A
C2690      C2691   1.397       .  A
C2690      H2699   1.084       .  S
C2691      C2692   1.420       .  A
C2691      S2695   1.803       .  S
C2692      C2693   1.393       .  A
C2693      C2694   1.385       .  A
C2693      H2700   1.083       .  S
C2694      S2696   1.817       .  S
S2695      H2698   1.408       .  S
C2701      C2702   1.390       .  A
C2701      C2706   1.420       .  A
C2702      C2703   1.386       .  A
C2702      H2711   1.083       .  S
C2703      C2704   1.428       .  A
C2703      S2707   1.811   1_655  S
C2704      C2705   1.394       .  A
C2705      C2706   1.401       .  A
C2705      H2712   1.083       .  S
C2706      S2708   1.791       .  S
S2707      H2710   1.407       .  S
S2708      H2709   1.395       .  S
C2713      C2714   1.410       .  A
C2713      C2718   1.413       .  A
C2714      C2715   1.402       .  A
C2714      H2723   1.082       .  S
C2715      C2716   1.413       .  A
C2715      S2719   1.803       .  S
C2716      C2717   1.409       .  A
C2717      C2718   1.395       .  A
C2717      H2724   1.081       .  S
C2718      S2720   1.803       .  S
S2719      H2722   1.407   1_455  S
S2720      H2721   1.408       .  S
C2725      C2726   1.414       .  A
C2725      C2730   1.409       .  A
C2726      C2727   1.415       .  A
C2726      H2735   1.080       .  S
C2727      C2728   1.412       .  A
C2727      S2731   1.798   1_655  S
C2728      C2729   1.415       .  A
C2729      C2730   1.401       .  A
C2729      H2736   1.084       .  S
C2730      S2732   1.806       .  S
S2731      H2734   1.406       .  S
S2732      H2733   1.407       .  S
C2737      C2738   1.419       .  A
C2737      C2742   1.413       .  A
C2738      C2739   1.398       .  A
C2738      H2747   1.078       .  S
C2739      C2740   1.402       .  A
C2739      S2743   1.807   1_455  S
C2740      C2741   1.414       .  A
C2741      C2742   1.417       .  A
C2741      H2748   1.083       .  S
C2742      S2744   1.795       .  S
S2743      H2746   1.406   1_655  S
S2744      H2745   1.405       .  S
C2749      C2750   1.407       .  A
C2749      C2754   1.411       .  A
C2750      C2751   1.399       .  A
C2750      H2759   1.076       .  S
C2751      C2752   1.407       .  A
C2751      S2755   1.800       .  S
C2752      C2753   1.411       .  A
C2753      C2754   1.410       .  A
C2753      H2760   1.080       .  S
C2754      S2756   1.803       .  S
S2755      H2758   1.406       .  S
S2756      H2757   1.406       .  S
C2761      C2762   1.413       .  A
C2761      C2766   1.412       .  A
C2762      C2763   1.401       .  A
C2762      H2771   1.083       .  S
C2763      C2764   1.410       .  A
C2763      S2767   1.800       .  S
C2764      C2765   1.412       .  A
C2765      C2766   1.399       .  A
C2765      H2772   1.082       .  S
C2766      S2768   1.811       .  S
S2767      H2770   1.408       .  S
S2768      H2769   1.407       .  S
