geometry optimzed in LAMMPS
_audit_creation_date              2020-11-30 
_audit_creation_method            'lammps2cif' 
_symmetry_space_group_name_H-M    'P1' 
_symmetry_Int_Tables_number       1 
_symmetry_cell_setting            triclinic 
loop_ 
_symmetry_equiv_pos_as_xyz 
  x,y,z 
_cell_length_a                    24.74627099 
_cell_length_b                    25.243562666052917 
_cell_length_c                    30.122300697065416 
_cell_angle_alpha                 77.07160807005116 
_cell_angle_beta                  78.83063507828989 
_cell_angle_gamma                 90.52826615594363 
loop_ 
_atom_site_label 
_atom_site_type_symbol 
_atom_site_fract_x 
_atom_site_fract_y 
_atom_site_fract_z 
_atom_site_charge 
N1          N  0.69313701  0.70401551  0.00456401    -0.01500
C2          C  0.71906426  0.75378670  0.99568835     0.01100
C3          C  0.70914512  0.78583098  0.45435312    -0.21800
C4          C  0.67603056  0.75462533  0.43738915    -0.22000
C5          C  0.66633145  0.70502648  0.46896965     0.01000
H6          H  0.72752918  0.82599932  0.43693491     0.14700
H7          H  0.66347177  0.76553543  0.40418934     0.14800
N8          N  0.22054768  0.56957246  0.06005548    -0.01500
C9          C  0.16950213  0.58932790  0.06158635     0.01100
C10         C  0.13366480  0.56073911  0.10134936    -0.21700
C11         C  0.16453885  0.52645855  0.12707808    -0.22000
C12         C  0.21752752  0.53389002  0.10137902     0.01000
H13         H  0.09185612  0.57056183  0.11406377     0.14700
H14         H  0.15112952  0.50329391  0.16251245     0.14800
N15         N  0.81327826  0.24532701  0.02753459    -0.01500
C16         C  0.86403995  0.22603785  0.01675283     0.01100
C17         C  0.89563804  0.23378249  0.04820893    -0.21800
C18         C  0.86349449  0.25837330  0.07933935    -0.22000
C19         C  0.81348554  0.26522356  0.06571441     0.01000
H20         H  0.93564173  0.21796445  0.05110349     0.14700
H21         H  0.87409664  0.26708624  0.11027934     0.14800
N22         N  0.01714846  0.84313293  0.50862611    -0.34700
N23         N  0.11812801  0.90786510  0.00356608    -0.55200
N24         N  0.05741634  0.00632083  0.99249729    -0.34700
N25         N  0.95869497  0.94212143  0.49345307    -0.55200
C26         C  0.05699512  0.81098299  0.49389868     0.28900
C27         C  0.96945331  0.82513184  0.49985758     0.28900
C28         C  0.09783721  0.02240253  0.01213718     0.28900
C29         C  0.01845322  0.04374903  0.99325756     0.28900
C30         C  0.13894730  0.85803784  0.00765526     0.37500
C31         C  0.15457345  0.94014809  0.01503967     0.37500
C32         C  0.91980015  0.90640621  0.48976227     0.37500
C33         C  0.94503949  0.99192564  0.47261693     0.37500
C34         C  0.03457167  0.77332739  0.47442477    -0.20000
C35         C  0.97996481  0.78383551  0.47642544    -0.20000
C36         C  0.08522588  0.07187525  0.02344713    -0.20000
C37         C  0.03521769  0.08504164  0.01194134    -0.20000
C38         C  0.18998506  0.85908175  0.01990972    -0.21000
C39         C  0.19964713  0.91084302  0.02505299    -0.21000
C40         C  0.88361625  0.93325082  0.46364507    -0.21000
C41         C  0.89924072  0.98757553  0.45328371    -0.21000
C42         C  0.11196839  0.81141658  0.00125328    -0.16400
C43         C  0.91843223  0.84957239  0.50798394    -0.16400
C44         C  0.96735993  0.04102882  0.47818806    -0.16400
C45         C  0.14495408  0.99340315  0.02188918    -0.16400
H46         H  0.05530941  0.74230395  0.45913416     0.16500
H47         H  0.95185084  0.76443694  0.46076385     0.16500
H48         H  0.10895288  0.09576729  0.03936556     0.16500
H49         H  0.01317178  0.12036580  0.01804263     0.16500
H50         H  0.21679061  0.82568010  0.02578463     0.14800
H51         H  0.23514206  0.92459991  0.03631100     0.14800
H52         H  0.84964411  0.91560662  0.45295523     0.14800
H53         H  0.87829862  0.02034261  0.43496607     0.14800
H54         H  0.02066042  0.87206354  0.52791948     0.28100
H55         H  0.05689031  0.97296620  0.97741584     0.28100
N56         N  0.31831881  0.10850394  0.13025813    -0.01500
C57         C  0.28179291  0.06525343  0.13657901     0.01100
C58         C  0.27636206  0.03389582  0.18153250    -0.21800
C59         C  0.30903915  0.05876559  0.20366359    -0.22000
C60         C  0.33393090  0.10449688  0.17175326     0.01000
H61         H  0.25045297  0.99710437  0.19707406     0.14700
H62         H  0.31268011  0.04596363  0.23968452     0.14800
C63         C  0.65885967  0.32866520  0.41297339     0.44400
N64         N  0.59913496  0.33221716  0.36926503     0.03300
C65         C  0.54843606  0.55657619  0.20400202    -0.04600
H66         H  0.49824080  0.57543443  0.37626741     0.08800
C67         C  0.35399019  0.42842805  0.41040027    -0.04900
Co68       Co  0.60919317  0.43859184  0.29911907     0.74200
N69         N  0.53744404  0.51653675  0.34073849    -0.24100
Co70       Co  0.48276433  0.49727283  0.30125017     0.74100
C71         C  0.35689603  0.48378661  0.41821758     0.44500
N72         N  0.43258257  0.31377679  0.39330164     0.02900
N73         N  0.42038259  0.47705296  0.36023599     0.03000
N74         N  0.63053588  0.51774684  0.20349048    -0.45000
H75         H  0.69107192  0.41716777  0.37795885     0.08800
N76         N  0.58537043  0.49388369  0.34018625     0.03300
N77         N  0.42891635  0.47314291  0.26267055     0.03000
C78         C  0.37931521  0.46848978  0.21221271     0.44600
N79         N  0.48065444  0.29122862  0.39203180    -0.23600
C80         C  0.66424693  0.38678757  0.21819027    -0.04500
N81         N  0.61873742  0.29950746  0.40276975    -0.44700
N82         N  0.41476850  0.50146970  0.22429146    -0.44900
C83         C  0.65887543  0.33443072  0.20598454     0.44400
N84         N  0.59396096  0.49563209  0.24175381     0.03300
N85         N  0.48737899  0.28941764  0.29443236    -0.23600
N86         N  0.62413864  0.38116728  0.35649206    -0.24100
N87         N  0.43910883  0.31128079  0.29574894     0.02900
H88         H  0.52609426  0.22923289  0.26016851     0.08800
H89         H  0.34427537  0.38235362  0.25246820     0.08800
N90         N  0.54570712  0.51754722  0.24278460    -0.24100
N91         N  0.39503816  0.42824530  0.37387042    -0.23800
N92         N  0.60405200  0.33276019  0.27111400     0.03300
C93         C  0.58314056  0.54513548  0.38842824     0.44700
C94         C  0.47844669  0.25440528  0.43215341    -0.05000
N95         N  0.40404562  0.42414643  0.27674054    -0.23800
H96         H  0.32509996  0.39447883  0.42828134     0.08800
N97         N  0.61408345  0.51015538  0.36788973    -0.45000
H98         H  0.51062253  0.22715184  0.43958105     0.08800
C99         C  0.43890851  0.25535822  0.25122008     0.44500
C100        C  0.66238560  0.38297513  0.38222022    -0.04500
Co101      Co  0.54317195  0.31019406  0.33202737     0.73800
N102        N  0.39676343  0.29389132  0.43250632    -0.44700
C103        C  0.60466137  0.55647330  0.17796839     0.44800
N104        N  0.62125962  0.30284784  0.24066817    -0.44700
Co105      Co  0.41652374  0.36893607  0.33539386     0.73900
C106        C  0.37175139  0.41758913  0.24752566    -0.05000
C107        C  0.53236611  0.54984856  0.37008144    -0.04600
N108        N  0.62869794  0.38193278  0.25873501    -0.24100
N109        N  0.39909125  0.51117758  0.38565812    -0.44900
H110        H  0.51582789  0.58314014  0.19615321     0.08800
C111        C  0.49108581  0.25345711  0.26738811    -0.05000
Cl112      Cl  0.51290572  0.40372628  0.31707934    -0.48000
C113        C  0.42261613  0.25634134  0.45917971     0.44500
H114        H  0.69123680  0.42217701  0.20030891     0.08800
N115        N  0.40884335  0.29198068  0.27048740    -0.44700
C116        C  0.34875540  0.19894343  0.18200370     0.25500
C117        C  0.36688453  0.14603568  0.18456329    -0.22600
C118        C  0.41194595  0.13063596  0.20572569     0.20400
C119        C  0.43722266  0.16676919  0.22561632     0.25500
C120        C  0.41714538  0.21889516  0.22544584    -0.22500
C121        C  0.37349833  0.23495085  0.20239698     0.20400
F122        F  0.35376034  0.28518241  0.20057539    -0.12500
F123        F  0.30461396  0.21454179  0.16258720    -0.14800
F124        F  0.47909657  0.14919270  0.24733800    -0.14800
F125        F  0.43048646  0.07978805  0.20830137    -0.12500
C126        C  0.31157341  0.17848312  0.05926084     0.25500
C127        C  0.34347938  0.14630352  0.08750686    -0.22600
C128        C  0.40131470  0.15161501  0.07388440     0.20400
C129        C  0.42678545  0.18828610  0.53323366     0.25500
C130        C  0.39519437  0.21933894  0.50383914    -0.22500
C131        C  0.33712156  0.21433057  0.01752860     0.20400
F132        F  0.30479212  0.24340280  0.99039089    -0.12500
F133        F  0.25576636  0.17532106  0.07215581    -0.14800
F134        F  0.48269349  0.19370430  0.52317022    -0.14800
F135        F  0.43333809  0.12025388  0.09986035    -0.12500
C136        C  0.23556960  0.03592989  0.02942291     0.25500
C137        C  0.18071373  0.01609271  0.04880830    -0.22600
C138        C  0.15927229  0.01593926  0.09545493     0.20400
C139        C  0.19140305  0.03546788  0.12221677     0.25500
C140        C  0.24722351  0.05317089  0.10395926    -0.22500
C141        C  0.26902415  0.05314540  0.05703855     0.20400
F142        F  0.32311987  0.06676870  0.03848249    -0.12500
F143        F  0.25657319  0.03668582  0.48452352    -0.14800
F144        F  0.16766814  0.03627934  0.16664675    -0.14800
F145        F  0.10684563  0.99611599  0.11537173    -0.12500
C146        C  0.88029428  0.08403842  0.00652428     0.25500
C147        C  0.93230680  0.08896088  0.97642277    -0.22600
C148        C  0.95309169  0.14088852  0.94991967     0.20400
C149        C  0.92630071  0.18739335  0.95833841     0.25500
C150        C  0.87703528  0.18242079  0.99162428    -0.22500
C151        C  0.85224046  0.13038137  0.01300771     0.20400
F152        F  0.80494233  0.12448702  0.04566243    -0.12500
F153        F  0.85917910  0.03488100  0.53391858    -0.14800
F154        F  0.95144915  0.23727002  0.93785840    -0.14800
F155        F  0.00229353  0.14676928  0.91961529    -0.12500
C156        C  0.70174473  0.26037867  0.17023886     0.25500
C157        C  0.69221880  0.31595623  0.16634249    -0.22600
C158        C  0.71692421  0.35367033  0.12503463     0.20400
C159        C  0.75313691  0.33645958  0.08980241     0.25500
C160        C  0.76503693  0.28154574  0.09533719    -0.22500
C161        C  0.73802246  0.24344795  0.13506615     0.20400
F162        F  0.74960879  0.19012873  0.14106160    -0.12500
F163        F  0.67904218  0.22274883  0.20942985    -0.14800
F164        F  0.77882574  0.37370715  0.05140292    -0.14800
F165        F  0.70698275  0.40730954  0.11896760    -0.12500
C166        C  0.79310292  0.30133833  0.45548704     0.25500
C167        C  0.77590392  0.26091685  0.49647707    -0.22600
C168        C  0.72028270  0.24111642  0.00902534     0.20400
C169        C  0.68263782  0.26253892  0.48130708     0.25500
C170        C  0.69944767  0.30455318  0.44111010    -0.22500
C171        C  0.75536485  0.32315088  0.42816592     0.20400
F172        F  0.77393404  0.36215065  0.38885548    -0.12500
F173        F  0.84630324  0.32142832  0.44303942    -0.14800
F174        F  0.62907875  0.24357937  0.49475540    -0.14800
F175        F  0.70277387  0.20222628  0.04857778    -0.12500
C176        C  0.16784659  0.67178819  0.99611464     0.25500
C177        C  0.16174131  0.64805465  0.04383703    -0.22600
C178        C  0.14642100  0.68086019  0.07602108     0.20400
C179        C  0.13260769  0.73431441  0.06132279     0.25500
C180        C  0.13566709  0.75735621  0.01400428    -0.22500
C181        C  0.15503157  0.72647500  0.48177040     0.20400
F182        F  0.16009755  0.74870698  0.43566390    -0.12500
F183        F  0.18353416  0.64185012  0.46454730    -0.14800
F184        F  0.11399862  0.76320396  0.09371025    -0.14800
F185        F  0.14362159  0.66083341  0.12223749    -0.12500
C186        C  0.30055306  0.55653549  0.12999068     0.25500
C187        C  0.26587589  0.51708577  0.12160076    -0.22600
C188        C  0.27343230  0.46192020  0.13790287     0.20400
C189        C  0.31331565  0.44609784  0.16449840     0.25500
C190        C  0.34491875  0.48541704  0.17679198    -0.22500
C191        C  0.33981823  0.54088220  0.15747036     0.20400
F192        F  0.37044069  0.58012107  0.16719147    -0.12500
F193        F  0.29348114  0.61033255  0.11457472    -0.14800
F194        F  0.32007195  0.39215567  0.17863400    -0.14800
F195        F  0.24108616  0.42334882  0.12906359    -0.12500
C196        C  0.26537938  0.48796875  0.47113308     0.25500
C197        C  0.31987457  0.50891816  0.45209236    -0.22600
C198        C  0.33894349  0.55457164  0.46576390     0.20400
C199        C  0.30522266  0.57683905  0.49939279     0.25500
C200        C  0.25155480  0.55478717  0.01930719    -0.22500
C201        C  0.23167215  0.51086609  0.00410241     0.20400
F202        F  0.18017402  0.48804795  0.02336194    -0.12500
F203        F  0.24442501  0.44536167  0.45802134    -0.14800
F204        F  0.32573853  0.61830423  0.01441973    -0.14800
F205        F  0.39114731  0.57626461  0.44811612    -0.12500
C206        C  0.80785965  0.73668417  0.52182097     0.25500
C207        C  0.76212515  0.76864769  0.51843181    -0.22600
C208        C  0.76371996  0.82005657  0.52843352     0.20400
C209        C  0.81341840  0.84286364  0.53293159     0.25500
C210        C  0.86324340  0.81680860  0.52259112    -0.22500
C211        C  0.85744351  0.75989587  0.52656763     0.20400
F212        F  0.89779018  0.72611050  0.53681787    -0.12500
F213        F  0.80617195  0.68463558  0.51679444    -0.14800
F214        F  0.81285944  0.89113319  0.54577230    -0.14800
F215        F  0.71847715  0.84922799  0.03127505    -0.12500
C216        C  0.61772777  0.65025094  0.12657385     0.25500
C217        C  0.63166402  0.59552758  0.13490792    -0.22600
C218        C  0.67034099  0.57808452  0.10106515     0.20400
C219        C  0.69217183  0.61403483  0.05842265     0.25500
C220        C  0.67686380  0.66820372  0.04977499    -0.22500
C221        C  0.64048601  0.68625993  0.08450573     0.20400
F222        F  0.62516207  0.73849491  0.07663487    -0.12500
F223        F  0.58222498  0.66910053  0.15913220    -0.14800
F224        F  0.72739915  0.59582207  0.02536781    -0.14800
F225        F  0.68494543  0.52561979  0.10844380    -0.12500
C226        C  0.68088430  0.62656251  0.43286716     0.25500
C227        C  0.64428913  0.65675001  0.45758727    -0.22600
C228        C  0.58732831  0.64654453  0.46361262     0.20400
C229        C  0.56703872  0.60808801  0.44305676     0.25500
C230        C  0.60373401  0.58025163  0.41548696    -0.22500
C231        C  0.66091854  0.58852535  0.41201593     0.20400
F232        F  0.69785398  0.56260289  0.38593808    -0.12500
F233        F  0.73621467  0.63679094  0.42617270    -0.14800
F234        F  0.51165245  0.59894924  0.44951152    -0.14800
F235        F  0.55152393  0.67542585  0.48771085    -0.12500
N236        N  0.69269766  0.70410250  0.50445450    -0.01500
C237        C  0.71864857  0.75386723  0.49551312     0.01100
C238        C  0.70948593  0.78582287  0.95458284    -0.21800
C239        C  0.67634934  0.75466288  0.93759354    -0.22000
C240        C  0.66670623  0.70501247  0.96910392     0.01000
H241        H  0.72783771  0.82601582  0.93720869     0.14700
H242        H  0.66373637  0.76564399  0.90441998     0.14800
N243        N  0.22067074  0.56959234  0.56001938    -0.01500
C244        C  0.16953462  0.58919823  0.56177123     0.01100
C245        C  0.13389337  0.56042716  0.60157686    -0.21700
C246        C  0.16498891  0.52625027  0.62714785    -0.22000
C247        C  0.21789974  0.53389917  0.60130046     0.01000
H248        H  0.09206792  0.57008022  0.61443962     0.14700
H249        H  0.15177237  0.50301555  0.66258078     0.14800
N250        N  0.81342846  0.24550989  0.52763795    -0.01500
C251        C  0.86408586  0.22603711  0.51681482     0.01100
C252        C  0.89565989  0.23332308  0.54842289    -0.21800
C253        C  0.86358511  0.25776354  0.57970575    -0.22000
C254        C  0.81364682  0.26501704  0.56600813     0.01000
H255        H  0.93554726  0.21722054  0.55133544     0.14700
H256        H  0.87416644  0.26609190  0.61078473     0.14800
N257        N  0.01776009  0.84326427  0.00811238    -0.34700
N258        N  0.11747544  0.90769792  0.50420976    -0.55200
N259        N  0.05691063  0.00620514  0.49275055    -0.34700
N260        N  0.95916297  0.94218812  0.99330831    -0.55200
C261        C  0.05760368  0.81122596  0.99318730     0.28900
C262        C  0.97001120  0.82526032  0.99943854     0.28900
C263        C  0.09727329  0.02235232  0.51243256     0.28900
C264        C  0.01798348  0.04368985  0.49339275     0.28900
C265        C  0.13827688  0.85785689  0.50841178     0.37500
C266        C  0.15393484  0.94004421  0.51560390     0.37500
C267        C  0.92025937  0.90646581  0.98964001     0.37500
C268        C  0.94546301  0.99199325  0.97252273     0.37500
C269        C  0.03512007  0.77364843  0.97367187    -0.20000
C270        C  0.98047035  0.78408502  0.97586506    -0.20000
C271        C  0.08466763  0.07188930  0.52363405    -0.20000
C272        C  0.03471522  0.08505453  0.51202279    -0.20000
C273        C  0.18930250  0.85894108  0.52067945    -0.21000
C274        C  0.19898459  0.91075138  0.52569927    -0.21000
C275        C  0.88401385  0.93330845  0.96359073    -0.21000
C276        C  0.89963156  0.98763785  0.95322706    -0.21000
C277        C  0.11132920  0.81120907  0.50203287    -0.16400
C278        C  0.91897437  0.84962069  0.00776753    -0.16400
C279        C  0.96778190  0.04109656  0.97811497    -0.16400
C280        C  0.14435327  0.99336389  0.52229054    -0.16400
H281        H  0.05583415  0.74271337  0.95824616     0.16500
H282        H  0.95228334  0.76471746  0.96024834     0.16500
H283        H  0.10836697  0.09582953  0.53954435     0.16500
H284        H  0.01268011  0.12043357  0.51801181     0.16500
H285        H  0.21609777  0.82554336  0.52662387     0.14800
H286        H  0.23448563  0.92455811  0.53692030     0.14800
H287        H  0.85001823  0.91565638  0.95293577     0.14800
H288        H  0.87865608  0.02040170  0.93494379     0.14800
H289        H  0.02132737  0.87212383  0.02749250     0.28100
H290        H  0.05641077  0.97306636  0.47783214     0.28100
N291        N  0.31805452  0.10854330  0.63035296    -0.01500
C292        C  0.28144118  0.06535110  0.63670092     0.01100
C293        C  0.27597835  0.03400483  0.68166072    -0.21800
C294        C  0.30870090  0.05883050  0.70378015    -0.22000
C295        C  0.33365394  0.10452418  0.67185655     0.01000
H296        H  0.24999435  0.99726546  0.69722113     0.14700
H297        H  0.31230320  0.04604753  0.73981171     0.14800
C298        C  0.65871893  0.32840484  0.91291165     0.44400
N299        N  0.59901179  0.33216581  0.86918237     0.03300
C300        C  0.54851224  0.55702678  0.70427981    -0.04600
H301        H  0.49846193  0.57539484  0.87661438     0.08800
C302        C  0.35405064  0.42858154  0.91047811    -0.04900
Co303      Co  0.60920359  0.43865405  0.79914797     0.74200
N304        N  0.53758280  0.51656067  0.84096318    -0.24100
Co305      Co  0.48286087  0.49748934  0.80142339     0.74100
C306        C  0.35702572  0.48388916  0.91837123     0.44500
N307        N  0.43248210  0.31393192  0.89326674     0.02900
N308        N  0.42049643  0.47720978  0.86038603     0.03000
N309        N  0.63056561  0.51806355  0.70360214    -0.45000
H310        H  0.69113595  0.41685882  0.87796579     0.08800
N311        N  0.58549771  0.49387088  0.84034675     0.03300
N312        N  0.42898953  0.47352130  0.76278262     0.03000
C313        C  0.37957034  0.46893855  0.71219261     0.44600
N314        N  0.48053506  0.29134540  0.89193950    -0.23600
C315        C  0.66411528  0.38686440  0.71811881    -0.04500
N316        N  0.61854729  0.29935718  0.90267200    -0.44700
N317        N  0.41497891  0.50188549  0.72435263    -0.44900
C318        C  0.65870891  0.33449035  0.70594869     0.44400
N319        N  0.59400486  0.49587436  0.74185689     0.03300
N320        N  0.48715716  0.28967520  0.79433740    -0.23600
N321        N  0.62410646  0.38107377  0.85645167    -0.24100
N322        N  0.43890095  0.31156854  0.79569605     0.02900
H323        H  0.52573332  0.22938453  0.76014219     0.08800
H324        H  0.34438239  0.38282897  0.75237074     0.08800
N325        N  0.54577974  0.51786009  0.74297113    -0.24100
N326        N  0.39509453  0.42842990  0.87394833    -0.23800
N327        N  0.60385951  0.33289964  0.77103213     0.03300
C328        C  0.58335130  0.54499769  0.88869330     0.44700
C329        C  0.47837279  0.25450639  0.93203680    -0.05000
N330        N  0.40406228  0.42454449  0.77679836    -0.23800
H331        H  0.32511506  0.39464990  0.92830271     0.08800
N332        N  0.61425546  0.51005081  0.86806948    -0.45000
H333        H  0.51055103  0.22723437  0.93940882     0.08800
C334        C  0.43853536  0.25554298  0.75127351     0.44500
C335        C  0.66236235  0.38274502  0.88219471    -0.04500
Co336      Co  0.54300554  0.31032165  0.83193250     0.73800
N337        N  0.39670917  0.29405747  0.93250305    -0.44700
C338        C  0.60470139  0.55692508  0.67819823     0.44800
N339        N  0.62105771  0.30295196  0.74061815    -0.44700
Co340      Co  0.41645653  0.36919926  0.83540221     0.73900
C341        C  0.37185931  0.41804425  0.74750688    -0.05000
C342        C  0.53255636  0.54978796  0.87037627    -0.04600
N343        N  0.62855740  0.38205292  0.75865864    -0.24100
N344        N  0.39924536  0.51129480  0.88585761    -0.44900
H345        H  0.51592098  0.58365146  0.69651264     0.08800
C346        C  0.49076825  0.25366551  0.76734774    -0.05000
Cl347      Cl  0.51287672  0.40389524  0.81710153    -0.48000
C348        C  0.42259212  0.25647519  0.95912506     0.44500
H349        H  0.69117759  0.42220393  0.70023459     0.08800
N350        N  0.40853826  0.29222415  0.77052323    -0.44700
C351        C  0.34838679  0.19897639  0.68211430     0.25500
C352        C  0.36655184  0.14607891  0.68469567    -0.22600
C353        C  0.41156056  0.13069796  0.70593051     0.20400
C354        C  0.43678031  0.16685670  0.72583231     0.25500
C355        C  0.41670314  0.21899641  0.72560000    -0.22500
C356        C  0.37306234  0.23500671  0.70253159     0.20400
F357        F  0.35327793  0.28521947  0.70069749    -0.12500
F358        F  0.30428172  0.21454559  0.66263704    -0.14800
F359        F  0.47860579  0.14929289  0.74761918    -0.14800
F360        F  0.43011464  0.07984907  0.70855437    -0.12500
C361        C  0.31144949  0.17842862  0.55924654     0.25500
C362        C  0.34329088  0.14629603  0.58758647    -0.22600
C363        C  0.40114053  0.15162371  0.57404281     0.20400
C364        C  0.42689464  0.18831423  0.03308119     0.25500
C365        C  0.39524008  0.21944464  0.00378575    -0.22500
C366        C  0.33706617  0.21420524  0.51749565     0.20400
F367        F  0.30479083  0.24319788  0.49025914    -0.12500
F368        F  0.25563651  0.17530091  0.57207036    -0.14800
F369        F  0.48280385  0.19367766  0.02292477    -0.14800
F370        F  0.43312136  0.12032497  0.60010476    -0.12500
C371        C  0.23500304  0.03593669  0.52967309     0.25500
C372        C  0.18014028  0.01617396  0.54911844    -0.22600
C373        C  0.15874035  0.01616903  0.59573913     0.20400
C374        C  0.19093885  0.03574351  0.62242795     0.25500
C375        C  0.24678409  0.05332688  0.60412457    -0.22500
C376        C  0.26852478  0.05318725  0.55721989     0.20400
F377        F  0.32262567  0.06672188  0.53862104    -0.12500
F378        F  0.25719311  0.03681114  0.98425694    -0.14800
F379        F  0.16725596  0.03668895  0.66684009    -0.14800
F380        F  0.10630272  0.99642198  0.61570972    -0.12500
C381        C  0.87999966  0.08401214  0.50672040     0.25500
C382        C  0.93188611  0.08888324  0.47645898    -0.22600
C383        C  0.95259946  0.14076097  0.44980103     0.20400
C384        C  0.92586910  0.18730717  0.45819310     0.25500
C385        C  0.87678437  0.18240353  0.49166988    -0.22500
C386        C  0.85203710  0.13038637  0.51324053     0.20400
F387        F  0.80494868  0.12456497  0.54612086    -0.12500
F388        F  0.85938310  0.03487367  0.03359482    -0.14800
F389        F  0.95094420  0.23716677  0.43750753    -0.14800
F390        F  0.00169755  0.14656682  0.41936791    -0.12500
C391        C  0.70220715  0.26034738  0.67072399     0.25500
C392        C  0.69223086  0.31587501  0.66648087    -0.22600
C393        C  0.71663415  0.35343268  0.62499096     0.20400
C394        C  0.75291401  0.33613814  0.58984378     0.25500
C395        C  0.76523226  0.28130537  0.59568981    -0.22500
C396        C  0.73858576  0.24333998  0.63566078     0.20400
F397        F  0.75058110  0.19010755  0.64195856    -0.12500
F398        F  0.67984589  0.22289171  0.71013520    -0.14800
F399        F  0.77826786  0.37325463  0.55122429    -0.14800
F400        F  0.70630546  0.40700339  0.61866855    -0.12500
C401        C  0.79303429  0.30062277  0.95514385     0.25500
C402        C  0.77575870  0.26051303  0.99633288    -0.22600
C403        C  0.72051651  0.24125985  0.50899173     0.20400
C404        C  0.68239533  0.26240659  0.98135376     0.25500
C405        C  0.69929715  0.30415981  0.94098632    -0.22500
C406        C  0.75529451  0.32243050  0.92782934     0.20400
F407        F  0.77391991  0.36114382  0.88833525    -0.12500
F408        F  0.84630911  0.32048234  0.94251311    -0.14800
F409        F  0.62874617  0.24376681  0.99499496    -0.14800
F410        F  0.70309474  0.20208475  0.54836744    -0.12500
C411        C  0.16766540  0.67184342  0.49653351     0.25500
C412        C  0.16154499  0.64792754  0.54422103    -0.22600
C413        C  0.14601383  0.68054875  0.57653539     0.20400
C414        C  0.13204961  0.73398489  0.56197429     0.25500
C415        C  0.13513560  0.75718542  0.51468162    -0.22500
C416        C  0.15538900  0.72645030  0.98120238     0.20400
F417        F  0.16047085  0.74852782  0.93506748    -0.12500
F418        F  0.18352989  0.64160104  0.96424694    -0.14800
F419        F  0.11329163  0.76270179  0.59446115    -0.14800
F420        F  0.14318375  0.66037616  0.62273758    -0.12500
C421        C  0.30090993  0.55681675  0.62980217     0.25500
C422        C  0.26639332  0.51727096  0.62135567    -0.22600
C423        C  0.27416980  0.46213843  0.63755249     0.20400
C424        C  0.31404766  0.44643109  0.66416781     0.25500
C425        C  0.34538865  0.48582206  0.67661182    -0.22500
C426        C  0.34014694  0.54126942  0.65733456     0.20400
F427        F  0.37055454  0.58057256  0.66718431    -0.12500
F428        F  0.29366810  0.61058407  0.61442411    -0.14800
F429        F  0.32102778  0.39252187  0.67821238    -0.14800
F430        F  0.24200107  0.42348330  0.62863433    -0.12500
C431        C  0.26542775  0.48813342  0.97108559     0.25500
C432        C  0.31998261  0.50898599  0.95222630    -0.22600
C433        C  0.33908608  0.55450294  0.96605652     0.20400
C434        C  0.30531722  0.57672986  0.99967812     0.25500
C435        C  0.25152519  0.55481179  0.51919740    -0.22500
C436        C  0.23166200  0.51075073  0.50415033     0.20400
F437        F  0.18024191  0.48782821  0.52358501    -0.12500
F438        F  0.24444605  0.44568743  0.95777931    -0.14800
F439        F  0.32564631  0.61852991  0.51398956    -0.14800
F440        F  0.39135075  0.57609837  0.94856226    -0.12500
C441        C  0.80841814  0.73662633  0.02178012     0.25500
C442        C  0.76261301  0.76852914  0.01856681    -0.22600
C443        C  0.76423189  0.81991413  0.02861695     0.20400
C444        C  0.81398227  0.84277831  0.03296012     0.25500
C445        C  0.86381598  0.81679662  0.02245059    -0.22500
C446        C  0.85805803  0.75988919  0.02637511     0.20400
F447        F  0.89851995  0.72615584  0.03641104    -0.12500
F448        F  0.80673125  0.68459129  0.01672345    -0.14800
F449        F  0.81345361  0.89102782  0.04583248    -0.14800
F450        F  0.71800697  0.84943784  0.53090307    -0.12500
C451        C  0.61776795  0.65063294  0.62667814     0.25500
C452        C  0.63157335  0.59586924  0.63502724    -0.22600
C453        C  0.66993617  0.57826479  0.60107920     0.20400
C454        C  0.69162221  0.61411073  0.55834899     0.25500
C455        C  0.67646524  0.66833269  0.54969590    -0.22500
C456        C  0.64037625  0.68653706  0.58451014     0.20400
F457        F  0.62519905  0.73882219  0.57664411    -0.12500
F458        F  0.58253902  0.66961960  0.65931835    -0.14800
F459        F  0.72659798  0.59575191  0.52523718    -0.14800
F460        F  0.68436087  0.52574237  0.60845294    -0.12500
C461        C  0.68121989  0.62664440  0.93285307     0.25500
C462        C  0.64465014  0.65675716  0.95767520    -0.22600
C463        C  0.58768403  0.64641695  0.96386656     0.20400
C464        C  0.56736307  0.60789708  0.94338206     0.25500
C465        C  0.60402150  0.58014041  0.91570670    -0.22500
C466        C  0.66121939  0.58855154  0.91206700     0.20400
F467        F  0.69811933  0.56269928  0.88589610    -0.12500
F468        F  0.73654786  0.63698425  0.92601552    -0.14800
F469        F  0.51197633  0.59860152  0.95001983    -0.14800
F470        F  0.55189502  0.67520532  0.98807603    -0.12500
loop_ 
_geom_bond_atom_site_label_1 
_geom_bond_atom_site_label_2 
_geom_bond_distance 
_geom_bond_site_symmetry_2 
_ccdc_geom_bond_type 
N1            C2   1.353   1_554  A
N1          C240   1.352   1_554  A
N1          C220   1.437       .  S
C2          C238   1.383       .  A
C2          C442   1.473   1_556  S
C3            C4   1.372       .  A
C3          C237   1.383       .  A
C3            H6   1.082       .  S
C4            C5   1.380       .  A
C4            H7   1.082       .  S
C5          N236   1.352       .  A
C5          C227   1.465       .  S
N8           C12   1.352       .  A
N8            C9   1.359       .  A
N8          C200   1.442       .  S
C9           C10   1.390       .  A
C9          C177   1.487       .  S
C10          C11   1.369       .  A
C10          H13   1.083       .  S
C11          C12   1.375       .  A
C11          H14   1.082       .  S
C12         C187   1.469       .  S
N15          C19   1.355       .  A
N15          C16   1.358       .  A
N15         C402   1.441   1_554  S
C16          C17   1.384       .  A
C16         C150   1.474   1_554  S
C17          C18   1.370       .  A
C17          H20   1.083       .  S
C18          C19   1.378       .  A
C18          H21   1.082       .  S
C19         C160   1.471       .  S
N22          C27   1.354   1_455  A
N22          C26   1.354       .  A
N22          H54   1.043       .  S
N23          C30   1.353       .  A
N23          C31   1.353       .  A
N24          C29   1.357       .  A
N24          C28   1.358   1_556  A
N24          H55   1.043   1_545  S
N25          C32   1.350       .  A
N25          C33   1.351       .  A
C26          C34   1.386       .  A
C26         C277   1.413       .  A
C27          C43   1.413       .  A
C27          C35   1.384       .  A
C28          C36   1.389       .  A
C28          C45   1.426   1_545  A
C29          C37   1.386   1_556  A
C29         C279   1.421   1_455  A
C30          C42   1.416       .  A
C30          C38   1.384       .  A
C31          C45   1.420       .  A
C31          C39   1.389       .  A
C32          C40   1.388       .  A
C32          C43   1.414       .  A
C33          C41   1.385       .  A
C33          C44   1.409   1_565  A
C34          C35   1.372   1_455  A
C34          H46   1.080       .  S
C35          H47   1.082       .  S
C36          C37   1.373       .  A
C36          H48   1.082       .  S
C37          H49   1.082       .  S
C38          C39   1.374       .  A
C38          H50   1.082       .  S
C39          H51   1.081       .  S
C40          C41   1.371       .  A
C40          H52   1.082       .  S
C41          H53   1.082   1_565  S
C42         C261   1.413   1_554  A
C42         C180   1.490       .  S
C43         C210   1.525       .  S
C44         C264   1.421   1_655  A
C44         C382   1.497       .  S
C45         C137   1.498   1_565  S
N56          C60   1.361       .  A
N56          C57   1.367       .  A
N56         C127   1.444       .  S
C57          C58   1.388       .  A
C57         C140   1.498       .  S
C58          C59   1.371       .  A
C58          H61   1.082   1_545  S
C59          C60   1.377       .  A
C59          H62   1.082       .  S
C60         C117   1.483       .  S
C63          N81   1.352       .  A
C63         C100   1.464       .  S
C63         C170   1.486       .  S
N64          N81   1.327       .  A
N64          N86   1.319       .  A
N64        Co101   2.086       .  S
C65          N90   1.339       .  A
C65         C103   1.459       .  S
C65         H110   1.082       .  S
H66         C107   1.081       .  S
C67          N91   1.346       .  A
C67          C71   1.472       .  S
C67          H96   1.081       .  S
Co68         N86   2.088       .  S
Co68         N76   2.081       .  S
Co68        N108   2.079       .  S
Co68         N84   2.086       .  S
Co68       Cl112   2.448       .  S
N69         C107   1.340       .  A
N69          N76   1.320       .  A
N69         Co70   2.086       .  S
Co70         N73   2.078       .  S
Co70         N90   2.076       .  S
Co70         N77   2.097       .  S
Co70       Cl112   2.455       .  S
C71         N109   1.348       .  A
C71         C197   1.490       .  S
N72          N79   1.321       .  A
N72         N102   1.324       .  A
N72        Co105   2.081       .  S
N73          N91   1.319       .  A
N73         N109   1.324       .  A
N74         C103   1.350       .  A
N74          N84   1.326       .  A
H75         C100   1.081       .  S
N76          N97   1.322       .  A
N77          N95   1.319       .  A
N77          N82   1.327       .  A
C78          N82   1.357       .  A
C78         C106   1.458       .  S
C78         C190   1.483       .  S
N79          C94   1.341       .  A
N79        Co101   2.099       .  S
C80         N108   1.340       .  A
C80          C83   1.460       .  S
C80         H114   1.081       .  S
C83         N104   1.353       .  A
C83         C157   1.483       .  S
N84          N90   1.318       .  A
N85         C111   1.341       .  A
N85          N87   1.318       .  A
N85        Co101   2.079       .  S
N86         C100   1.341       .  A
N87         N115   1.326       .  A
N87        Co105   2.095       .  S
H88         C111   1.081       .  S
H89         C106   1.080       .  S
N91        Co105   2.102       .  S
N92         N104   1.326       .  A
N92         N108   1.320       .  A
N92        Co101   2.099       .  S
C93          N97   1.350       .  A
C93         C107   1.463       .  S
C93         C230   1.478       .  S
C94         C113   1.469       .  S
C94          H98   1.081       .  S
N95         C106   1.333       .  A
N95        Co105   2.068       .  S
C99         N115   1.353       .  A
C99         C111   1.463       .  S
C99         C120   1.488       .  S
Co101      Cl112   2.455       .  S
N102        C113   1.350       .  A
C103        C217   1.477       .  S
Co105      Cl112   2.449       .  S
C113        C130   1.488       .  S
C116        C117   1.403       .  A
C116        C121   1.401       .  A
C116        F123   1.357       .  S
C117        C118   1.405       .  A
C118        C119   1.401       .  A
C118        F125   1.358       .  S
C119        C120   1.410       .  A
C119        F124   1.356       .  S
C120        C121   1.409       .  A
C121        F122   1.357       .  S
C126        C127   1.404       .  A
C126        C131   1.404       .  A
C126        F133   1.357       .  S
C127        C128   1.407       .  A
C128        C364   1.396       .  A
C128        F135   1.357       .  S
C129        C130   1.407       .  A
C129        C363   1.396       .  A
C129        F134   1.357       .  S
C130        C366   1.414       .  A
C131        C365   1.414       .  A
C131        F132   1.357   1_554  S
C136        C137   1.409       .  A
C136        C141   1.410       .  A
C136        F378   1.357   1_554  S
C137        C138   1.402       .  A
C138        C139   1.394       .  A
C138        F145   1.359   1_545  S
C139        C140   1.412       .  A
C139        F144   1.358       .  S
C140        C141   1.412       .  A
C141        F142   1.356       .  S
F143        C371   1.357       .  S
C146        C147   1.410   1_554  A
C146        C151   1.398       .  A
C146        F388   1.358       .  S
C147        C148   1.407       .  A
C147        C279   1.498       .  S
C148        C149   1.402       .  A
C148        F155   1.358   1_655  S
C149        C150   1.405       .  A
C149        F154   1.357       .  S
C150        C151   1.404   1_556  A
C151        F152   1.358       .  S
F153        C381   1.358       .  S
C156        C157   1.407       .  A
C156        C161   1.397       .  A
C156        F163   1.358       .  S
C157        C158   1.412       .  A
C158        C159   1.401       .  A
C158        F165   1.357       .  S
C159        C160   1.400       .  A
C159        F164   1.358       .  S
C160        C161   1.403       .  A
C161        F162   1.358       .  S
C166        C167   1.404       .  A
C166        C171   1.399       .  A
C166        F173   1.357       .  S
C167        N250   1.441       .  S
C167        C403   1.404       .  A
C168        C402   1.404   1_554  A
C168        C404   1.405   1_554  A
C168        F175   1.356       .  S
C169        C170   1.409       .  A
C169        C403   1.405       .  A
C169        F174   1.358       .  S
C170        C171   1.409       .  A
C171        F172   1.357       .  S
C176        C177   1.406   1_556  A
C176        C416   1.409       .  A
C176        F418   1.357       .  S
C177        C178   1.411       .  A
C178        C179   1.391       .  A
C178        F185   1.358       .  S
C179        C180   1.401       .  A
C179        F184   1.359       .  S
C180        C416   1.410   1_554  A
C181        C411   1.409       .  A
C181        C415   1.410       .  A
C181        F182   1.357       .  S
F183        C411   1.357       .  S
C186        C187   1.405       .  A
C186        C191   1.399       .  A
C186        F193   1.358       .  S
C187        C188   1.396       .  A
C188        C189   1.395       .  A
C188        F195   1.358       .  S
C189        C190   1.413       .  A
C189        F194   1.355       .  S
C190        C191   1.408       .  A
C191        F192   1.358       .  S
C196        C197   1.407       .  A
C196        C436   1.400       .  A
C196        F203   1.357       .  S
C197        C198   1.414       .  A
C198        C199   1.405       .  A
C198        F205   1.357       .  S
C199        C435   1.401       .  A
C199        F439   1.356       .  S
C200        C201   1.409       .  A
C200        C434   1.401   1_554  A
C201        C431   1.399   1_554  A
C201        F202   1.358       .  S
F204        C434   1.356   1_554  S
C206        C207   1.403       .  A
C206        C211   1.401       .  A
C206        F213   1.357       .  S
C207        C208   1.398       .  A
C207        C237   1.473       .  S
C208        C209   1.396       .  A
C208        F450   1.358       .  S
C209        C210   1.417       .  A
C209        F214   1.358       .  S
C210        C211   1.418       .  A
C211        F212   1.355       .  S
F215        C443   1.358       .  S
C216        C217   1.406       .  A
C216        C221   1.396       .  A
C216        F223   1.358       .  S
C217        C218   1.407       .  A
C218        C219   1.402       .  A
C218        F225   1.357       .  S
C219        C220   1.403       .  A
C219        F224   1.356       .  S
C220        C221   1.403       .  A
C221        F222   1.358       .  S
C226        C227   1.400       .  A
C226        C231   1.394       .  A
C226        F233   1.358       .  S
C227        C228   1.400       .  A
C228        C229   1.399       .  A
C228        F235   1.358       .  S
C229        C230   1.410       .  A
C229        F234   1.357       .  S
C230        C231   1.409       .  A
C231        F232   1.358       .  S
N236        C237   1.353       .  A
N236        C455   1.437       .  S
C238        C239   1.373       .  A
C238        H241   1.082       .  S
C239        C240   1.380       .  A
C239        H242   1.082       .  S
C240        C462   1.466       .  S
N243        C247   1.352       .  A
N243        C244   1.359       .  A
N243        C435   1.443       .  S
C244        C245   1.390       .  A
C244        C412   1.487       .  S
C245        C246   1.369       .  A
C245        H248   1.083       .  S
C246        C247   1.375       .  A
C246        H249   1.082       .  S
C247        C422   1.469       .  S
N250        C254   1.355       .  A
N250        C251   1.358       .  A
C251        C252   1.384       .  A
C251        C385   1.474       .  S
C252        C253   1.370       .  A
C252        H255   1.083       .  S
C253        C254   1.378       .  A
C253        H256   1.082       .  S
C254        C395   1.471       .  S
N257        C262   1.354   1_454  A
N257        C261   1.354   1_554  A
N257        H289   1.043       .  S
N258        C265   1.353       .  A
N258        C266   1.353       .  A
N259        C264   1.357       .  A
N259        C263   1.358       .  A
N259        H290   1.035   1_545  S
N260        C267   1.350       .  A
N260        C268   1.351       .  A
C261        C269   1.386       .  A
C262        C278   1.413   1_556  A
C262        C270   1.384       .  A
C263        C271   1.389       .  A
C263        C280   1.426   1_545  A
C264        C272   1.386       .  A
C265        C277   1.416       .  A
C265        C273   1.384       .  A
C266        C280   1.420       .  A
C266        C274   1.389       .  A
C267        C275   1.388       .  A
C267        C278   1.414   1_556  A
C268        C276   1.385       .  A
C268        C279   1.410   1_565  A
C269        C270   1.372   1_455  A
C269        H281   1.080       .  S
C270        H282   1.082       .  S
C271        C272   1.373       .  A
C271        H283   1.082       .  S
C272        H284   1.082       .  S
C273        C274   1.374       .  A
C273        H285   1.082       .  S
C274        H286   1.081       .  S
C275        C276   1.371       .  A
C275        H287   1.082       .  S
C276        H288   1.082   1_565  S
C277        C415   1.490       .  S
C278        C445   1.525       .  S
C280        C372   1.498   1_565  S
N291        C295   1.361       .  A
N291        C292   1.367       .  A
N291        C362   1.444       .  S
C292        C293   1.388       .  A
C292        C375   1.498       .  S
C293        C294   1.371       .  A
C293        H296   1.082   1_545  S
C294        C295   1.377       .  A
C294        H297   1.082       .  S
C295        C352   1.483       .  S
C298        N316   1.352       .  A
C298        C335   1.464       .  S
C298        C405   1.486       .  S
N299        N316   1.327       .  A
N299        N321   1.319       .  A
N299       Co336   2.085       .  S
C300        N325   1.339       .  A
C300        C338   1.459       .  S
C300        H345   1.082       .  S
H301        C342   1.081       .  S
C302        N326   1.346       .  A
C302        C306   1.471       .  S
C302        H331   1.081       .  S
Co303       N321   2.089       .  S
Co303       N311   2.082       .  S
Co303       N343   2.080       .  S
Co303       N319   2.086       .  S
Co303      Cl347   2.448       .  S
N304        C342   1.340       .  A
N304        N311   1.320       .  A
N304       Co305   2.087       .  S
Co305       N308   2.077       .  S
Co305       N325   2.075       .  S
Co305       N312   2.097       .  S
Co305      Cl347   2.455       .  S
C306        N344   1.348       .  A
C306        C432   1.490       .  S
N307        N314   1.321       .  A
N307        N337   1.324       .  A
N307       Co340   2.081       .  S
N308        N326   1.319       .  A
N308        N344   1.324       .  A
N309        C338   1.350       .  A
N309        N319   1.326       .  A
H310        C335   1.081       .  S
N311        N332   1.322       .  A
N312        N330   1.319       .  A
N312        N317   1.327       .  A
C313        N317   1.357       .  A
C313        C341   1.457       .  S
C313        C425   1.483       .  S
N314        C329   1.341       .  A
N314       Co336   2.098       .  S
C315        N343   1.340       .  A
C315        C318   1.460       .  S
C315        H349   1.081       .  S
C318        N339   1.353       .  A
C318        C392   1.482       .  S
N319        N325   1.318       .  A
N320        C346   1.341       .  A
N320        N322   1.318       .  A
N320       Co336   2.079       .  S
N321        C335   1.341       .  A
N322        N350   1.326       .  A
N322       Co340   2.096       .  S
H323        C346   1.081       .  S
H324        C341   1.080       .  S
N326       Co340   2.102       .  S
N327        N339   1.325       .  A
N327        N343   1.320       .  A
N327       Co336   2.099       .  S
C328        N332   1.350       .  A
C328        C342   1.463       .  S
C328        C465   1.479       .  S
C329        C348   1.469       .  S
C329        H333   1.081       .  S
N330        C341   1.332       .  A
N330       Co340   2.068       .  S
C334        N350   1.353       .  A
C334        C346   1.463       .  S
C334        C355   1.488       .  S
Co336      Cl347   2.454       .  S
N337        C348   1.350       .  A
C338        C452   1.477       .  S
Co340      Cl347   2.449       .  S
C348        C365   1.488   1_556  S
C351        C352   1.403       .  A
C351        C356   1.401       .  A
C351        F358   1.357       .  S
C352        C353   1.405       .  A
C353        C354   1.400       .  A
C353        F360   1.358       .  S
C354        C355   1.410       .  A
C354        F359   1.356       .  S
C355        C356   1.409       .  A
C356        F357   1.356       .  S
C361        C362   1.404       .  A
C361        C366   1.404       .  A
C361        F368   1.357       .  S
C362        C363   1.407       .  A
C363        F370   1.357       .  S
C364        C365   1.407       .  A
C364        F369   1.357       .  S
C366        F367   1.357       .  S
C371        C372   1.408       .  A
C371        C376   1.410       .  A
C372        C373   1.402       .  A
C373        C374   1.394       .  A
C373        F380   1.359   1_545  S
C374        C375   1.412       .  A
C374        F379   1.358       .  S
C375        C376   1.412       .  A
C376        F377   1.356       .  S
C381        C382   1.410       .  A
C381        C386   1.397       .  A
C382        C383   1.407       .  A
C383        C384   1.402       .  A
C383        F390   1.358   1_655  S
C384        C385   1.405       .  A
C384        F389   1.357       .  S
C385        C386   1.404       .  A
C386        F387   1.358       .  S
C391        C392   1.407       .  A
C391        C396   1.397       .  A
C391        F398   1.358       .  S
C392        C393   1.412       .  A
C393        C394   1.401       .  A
C393        F400   1.357       .  S
C394        C395   1.400       .  A
C394        F399   1.358       .  S
C395        C396   1.403       .  A
C396        F397   1.358       .  S
C401        C402   1.404       .  A
C401        C406   1.399       .  A
C401        F408   1.357       .  S
C403        F410   1.356       .  S
C404        C405   1.409       .  A
C404        F409   1.358       .  S
C405        C406   1.408       .  A
C406        F407   1.357       .  S
C411        C412   1.406       .  A
C412        C413   1.412       .  A
C413        C414   1.391       .  A
C413        F420   1.359       .  S
C414        C415   1.401       .  A
C414        F419   1.359       .  S
C416        F417   1.357       .  S
C421        C422   1.405       .  A
C421        C426   1.399       .  A
C421        F428   1.358       .  S
C422        C423   1.396       .  A
C423        C424   1.395       .  A
C423        F430   1.358       .  S
C424        C425   1.413       .  A
C424        F429   1.355       .  S
C425        C426   1.408       .  A
C426        F427   1.358       .  S
C431        C432   1.407       .  A
C431        F438   1.357       .  S
C432        C433   1.413       .  A
C433        C434   1.405       .  A
C433        F440   1.357       .  S
C435        C436   1.409       .  A
C436        F437   1.358       .  S
C441        C442   1.403       .  A
C441        C446   1.401       .  A
C441        F448   1.357       .  S
C442        C443   1.398       .  A
C443        C444   1.396       .  A
C444        C445   1.417       .  A
C444        F449   1.358       .  S
C445        C446   1.418       .  A
C446        F447   1.355       .  S
C451        C452   1.406       .  A
C451        C456   1.396       .  A
C451        F458   1.358       .  S
C452        C453   1.407       .  A
C453        C454   1.402       .  A
C453        F460   1.357       .  S
C454        C455   1.404       .  A
C454        F459   1.356       .  S
C455        C456   1.403       .  A
C456        F457   1.358       .  S
C461        C462   1.400       .  A
C461        C466   1.394       .  A
C461        F468   1.358       .  S
C462        C463   1.400       .  A
C463        C464   1.400       .  A
C463        F470   1.358       .  S
C464        C465   1.410       .  A
C464        F469   1.357       .  S
C465        C466   1.409       .  A
C466        F467   1.358       .  S
