geometry optimzed in LAMMPS
_audit_creation_date              2020-11-30 
_audit_creation_method            'lammps2cif' 
_symmetry_space_group_name_H-M    'P1' 
_symmetry_Int_Tables_number       1 
_symmetry_cell_setting            triclinic 
loop_ 
_symmetry_equiv_pos_as_xyz 
  x,y,z 
_cell_length_a                    29.26977813 
_cell_length_b                    29.360092463641752 
_cell_length_c                    29.335124572856937 
_cell_angle_alpha                 88.84667450715997 
_cell_angle_beta                  90.35680839759736 
_cell_angle_gamma                 91.42787682639425 
loop_ 
_atom_site_label 
_atom_site_type_symbol 
_atom_site_fract_x 
_atom_site_fract_y 
_atom_site_fract_z 
_atom_site_charge 
O1          O  0.44074945  0.36584948  0.06731117    -0.74000
O2          O  0.48303960  0.40382208  0.12019277    -0.52900
C3          C  0.46232333  0.36763945  0.10526067     0.79700
O4          O  0.61659776  0.45474977  0.92506350    -0.58600
O5          O  0.57051475  0.48089353  0.86728323    -0.51600
C6          C  0.60924329  0.46765361  0.88372039     0.71800
O7          O  0.58518633  0.42256671  0.07577124    -0.73100
O8          O  0.56416340  0.47256045  0.12621551    -0.53700
C9          C  0.59556686  0.44874483  0.10841597     0.77800
O10         O  0.43616778  0.39198078  0.91368303    -0.58300
O11         O  0.48940311  0.41260536  0.86466539    -0.51400
C12         C  0.46502320  0.38078458  0.88400375     0.74400
Zr13       Zr  0.46001692  0.39463075  0.99226130     2.54700
O14         O  0.50500126  0.32655409  0.98443148    -0.78800
O15         O  0.39190577  0.34511432  0.99119109    -0.92300
Zr16       Zr  0.58157294  0.45346323  0.99913661     2.64700
O17         O  0.62452889  0.38347187  0.99564871    -0.97200
O18         O  0.65275764  0.49425444  0.01684066    -0.79300
O19         O  0.51890046  0.42237233  0.04040562    -0.82600
O20         O  0.52350815  0.42521961  0.95028931    -2.17300
O21         O  0.38608157  0.54017089  0.91544381    -0.66000
O22         O  0.41737374  0.49135844  0.86744601    -0.50600
C23         C  0.38292328  0.51415720  0.88129679     0.72700
O24         O  0.51517904  0.60610759  0.07017252    -0.58900
O25         O  0.49341004  0.55474400  0.12614212    -0.50900
C26         C  0.50250835  0.59560939  0.11081176     0.74500
O27         O  0.55862497  0.58056667  0.92191117    -0.70300
O28         O  0.50794250  0.56398740  0.86830170    -0.49000
C29         C  0.53362679  0.59355092  0.88883523     0.75900
O30         O  0.39798504  0.54113361  0.06887476    -0.65700
O31         O  0.41431022  0.48804176  0.12060745    -0.52900
C32         C  0.38507872  0.51391077  0.10089990     0.74300
Zr33       Zr  0.40362694  0.51419262  0.99186367     2.77500
O34         O  0.34415670  0.57073889  0.98918841    -0.96400
O35         O  0.33593951  0.46434908  0.99535577    -0.77200
Zr36       Zr  0.52598884  0.57306284  0.99696955     2.70100
O37         O  0.49121325  0.64582440  0.97904520    -0.78500
O38         O  0.59766510  0.61411590  0.01182538    -0.97600
Zr39       Zr  0.49005668  0.48121185  0.08693981     2.21500
Zr40       Zr  0.49494376  0.48700418  0.90235337     2.11100
O41         O  0.46561170  0.54675677  0.94925905    -2.46200
O42         O  0.46362739  0.54201599  0.03871529    -0.78300
O43         O  0.43233815  0.45564352  0.94674596    -0.70500
O44         O  0.55370475  0.51361696  0.04388841    -2.31400
O45         O  0.42972381  0.45226338  0.03745131    -2.27600
O46         O  0.55404814  0.51365700  0.95306239    -0.72200
H47         H  0.53733789  0.40175720  0.93278024     0.79800
H48         H  0.57745137  0.52658572  0.06296119     0.80900
H49         H  0.45587995  0.57309739  0.93197678     0.83100
H50         H  0.40419434  0.43922836  0.05425759     0.80700
H51         H  0.66075775  0.51119826  0.98836075     0.43700
H52         H  0.62096996  0.59687571  0.99555559     0.42700
H53         H  0.51092680  0.66880982  0.99437160     0.42400
H54         H  0.31905867  0.55751263  0.00805728     0.40300
H55         H  0.32749773  0.45947433  0.96304483     0.43400
H56         H  0.37033466  0.35866868  0.01265486     0.38200
H57         H  0.48681296  0.30199307  0.99989132     0.44300
H58         H  0.60214810  0.35907527  0.00449211     0.40800
H59         H  0.35662476  0.59664952  0.00685208     0.45700
H60         H  0.40092703  0.31607803  0.00600858     0.44400
H61         H  0.63015357  0.37840727  0.96294499     0.44500
H62         H  0.59530541  0.64307696  0.99419755     0.44900
C63         C  0.18987461  0.49545012  0.12702555     0.04400
C64         C  0.17725199  0.49940267  0.17229940    -0.11700
C65         C  0.13142444  0.50025588  0.18451455     0.01900
C66         C  0.09726962  0.49449749  0.15057351    -0.10200
C67         C  0.10871156  0.48590909  0.10414468     0.04400
C68         C  0.15605917  0.49012640  0.09314011    -0.09700
H69         H  0.20354572  0.50420919  0.19812988     0.10000
H70         H  0.06230065  0.49818238  0.16092038     0.07600
H71         H  0.16762010  0.49110486  0.05833859     0.07400
C72         C  0.84967625  0.51126258  0.18144448     0.04400
C73         C  0.88198274  0.51247233  0.14606468    -0.11700
C74         C  0.86978947  0.49847843  0.10149925     0.01900
C75         C  0.82324011  0.48586639  0.09313045    -0.10200
C76         C  0.79019774  0.48815470  0.12802658     0.04400
C77         C  0.80428465  0.49977551  0.17183918    -0.09700
H78         H  0.91687421  0.52298406  0.15371552     0.10000
H79         H  0.81259405  0.47466817  0.05969007     0.07600
H80         H  0.77942608  0.49975673  0.19913236     0.07400
C81         C  0.19163439  0.48277849  0.83874323     0.04400
C82         C  0.15734736  0.48268671  0.87249600    -0.11700
C83         C  0.11001094  0.47591649  0.86149656     0.01900
C84         C  0.09901814  0.47648422  0.81381401    -0.10200
C85         C  0.13348877  0.47777035  0.78010536     0.04400
C86         C  0.17918734  0.47917563  0.79324621    -0.09700
H87         H  0.16828945  0.48919836  0.90699896     0.10000
H88         H  0.06424036  0.47790083  0.80183208     0.07600
H89         H  0.20555484  0.47985383  0.76737014     0.07400
C90         C  0.85502480  0.51556981  0.78002354     0.04400
C91         C  0.88712092  0.51363261  0.81600212    -0.11700
C92         C  0.87325300  0.50297085  0.86128470     0.01900
C93         C  0.82610751  0.49420768  0.86892633    -0.10200
C94         C  0.79386109  0.49957312  0.83345895     0.04400
C95         C  0.80857573  0.51082015  0.78953377    -0.09700
H96         H  0.92300217  0.51862887  0.80811107     0.10000
H97         H  0.81424005  0.48282256  0.90222100     0.07600
H98         H  0.78386956  0.51168214  0.76181579     0.07400
N99         N  0.98956988  0.49106783  0.05333483    -0.35300
N100        N  0.06155653  0.48324516  0.98251103    -0.55900
N101        N  0.99153905  0.49151168  0.91104990    -0.35300
N102        N  0.91967413  0.49565244  0.98229695    -0.55900
C103        C  0.02481797  0.47407528  0.07807514     0.28300
C104        C  0.95032024  0.47997662  0.07607315     0.28300
C105        C  0.02551852  0.47094266  0.88839999     0.28300
C106        C  0.95145832  0.47982697  0.89020936     0.28300
C107        C  0.08454454  0.46965252  0.02072690     0.36900
C108        C  0.08541751  0.46818052  0.94623575     0.36900
C109        C  0.89627137  0.50981517  0.01896250     0.36900
C110        C  0.89780620  0.51173110  0.94466524     0.36900
C111        C  0.00754714  0.44953411  0.11528052    -0.20600
C112        C  0.96073992  0.45352827  0.11424042    -0.20600
C113        C  0.00626883  0.44333106  0.85523009    -0.20600
C114        C  0.95978398  0.44944248  0.85591779    -0.20600
C115        C  0.11984628  0.44187548  0.00856680    -0.21600
C116        C  0.12055146  0.44114000  0.96181448    -0.21600
C117        C  0.86012700  0.53619585  0.00461458    -0.21600
C118        C  0.86129766  0.53772264  0.95762745    -0.21600
C119        C  0.07197025  0.47859057  0.06668748    -0.17000
C120        C  0.90605803  0.49615253  0.06465641    -0.17000
C121        C  0.90824994  0.49866206  0.89952851    -0.17000
C122        C  0.07303375  0.47396618  0.89927433    -0.17000
H123        H  0.02659807  0.42974664  0.14007021     0.15900
H124        H  0.93707869  0.43836657  0.13871350     0.15900
H125        H  0.02360862  0.41968978  0.83387522     0.15900
H126        H  0.93479640  0.43276557  0.83418815     0.15900
H127        H  0.14151625  0.42218579  0.03110856     0.14200
H128        H  0.14274991  0.42065098  0.94169192     0.14200
H129        H  0.83552767  0.55271205  0.02568763     0.14200
H130        H  0.83762194  0.55563393  0.93568367     0.14200
H131        H  0.99271853  0.51305236  0.02509424     0.27500
H132        H  0.99578837  0.51567885  0.93643778     0.27500
O133        O  0.08539632  0.57429840  0.38607945    -0.74000
O134        O  0.13517836  0.52264295  0.40731814    -0.52900
C135        C  0.11590167  0.54613375  0.37544942     0.79700
O136        O  0.92920275  0.60679747  0.54299082    -0.58600
O137        O  0.87722919  0.58736290  0.49093164    -0.51600
C138        C  0.89586575  0.61751336  0.51689660     0.71800
O139        O  0.08409538  0.61733013  0.54001557    -0.73100
O140        O  0.13140801  0.59119900  0.48746974    -0.53700
C141        C  0.11686364  0.62367022  0.51219930     0.77800
O142        O  0.92938329  0.57373580  0.37333994    -0.58300
O143        O  0.87943201  0.52238609  0.40339794    -0.51400
C144        C  0.89516365  0.54642467  0.36936239     0.74400
Zr145      Zr  0.00574834  0.55021316  0.39196304     2.54700
O146        O  0.00735344  0.61364000  0.33723943    -0.78800
O147        O  0.00781221  0.50645066  0.32234953    -0.92300
Zr148      Zr  0.00684528  0.60130034  0.51527966     2.64700
O149        O  0.00599086  0.67194044  0.47021067    -0.97200
O150        O  0.00824357  0.65759978  0.57505065    -0.79300
O151        O  0.05136259  0.57639827  0.45368736    -0.82600
O152        O  0.96132517  0.57683664  0.45306908    -2.17300
O153        O  0.92494701  0.42126111  0.41717864    -0.66000
O154        O  0.87430750  0.43936799  0.46910133    -0.50600
C155        C  0.89253167  0.40929255  0.44396373     0.72700
O156        O  0.08047018  0.44748395  0.56896762    -0.58900
O157        O  0.13416500  0.49973913  0.55516667    -0.50900
C158        C  0.11373466  0.47211387  0.58336963     0.74500
O159        O  0.92516182  0.45660414  0.58411953    -0.70300
O160        O  0.87885256  0.50966069  0.55673734    -0.49000
C161        C  0.89458120  0.48580699  0.59040464     0.75900
O162        O  0.07875775  0.40770730  0.42388863    -0.65700
O163        O  0.12837108  0.43736591  0.47469647    -0.52900
C164        C  0.11266080  0.40375942  0.45102596     0.74300
Zr165      Zr  0.00230915  0.42599275  0.44628774     2.77500
O166        O  0.99600281  0.35655387  0.49294395    -0.96400
O167        O  0.00044425  0.37013845  0.38610330    -0.77200
Zr168      Zr  0.00412268  0.47692640  0.56926392     2.70100
O169        O  0.00342324  0.41410587  0.62465150    -0.78500
O170        O  0.01255862  0.51920836  0.63957984    -0.97600
Zr171      Zr  0.09687778  0.51393885  0.48115553     2.21500
Zr172      Zr  0.91286481  0.51376836  0.48012828     2.11100
O173        O  0.95802066  0.45033858  0.50794983    -2.46200
O174        O  0.04820417  0.45165807  0.50773082    -0.78300
O175        O  0.95921702  0.48811833  0.41854102    -0.70500
O176        O  0.05050165  0.53946345  0.54388365    -2.31400
O177        O  0.04852656  0.48766323  0.41867178    -2.27600
O178        O  0.96093029  0.53916259  0.54210713    -0.72200
H179        H  0.94431828  0.60308894  0.44346538     0.79800
H180        H  0.06816764  0.54782599  0.57046944     0.80900
H181        H  0.94036009  0.42365160  0.51732076     0.83100
H182        H  0.06498273  0.47762847  0.39252302     0.80700
H183        H  0.01619377  0.64016517  0.60311612     0.43700
H184        H  0.98865406  0.54245586  0.63751930     0.42700
H185        H  0.00523133  0.38645347  0.60604582     0.42400
H186        H  0.01657749  0.33508992  0.47819274     0.40300
H187        H  0.00782809  0.38802811  0.35801615     0.43400
H188        H  0.00206322  0.52890361  0.29746740     0.38200
H189        H  0.01379361  0.64085330  0.35581694     0.44300
H190        H  0.00448706  0.66244436  0.43804553     0.40800
H191        H  0.01169791  0.36418417  0.52189523     0.45700
H192        H  0.97969182  0.48700902  0.32340387     0.44400
H193        H  0.97574613  0.68489336  0.47608527     0.44500
H194        H  0.00177944  0.49775159  0.66389404     0.44900
C195        C  0.50326275  0.77910129  0.16822358     0.04400
C196        C  0.50853085  0.79200696  0.21341586    -0.11700
C197        C  0.51420691  0.83765027  0.22433111     0.01900
C198        C  0.51262588  0.87133103  0.18932618    -0.10200
C199        C  0.50128001  0.86028836  0.14335990     0.04400
C200        C  0.50033498  0.81295095  0.13339830    -0.09700
H201        H  0.50965956  0.76614294  0.24030399     0.10000
H202        H  0.52038743  0.90606863  0.19867657     0.07600
H203        H  0.49878026  0.80129890  0.09887692     0.07400
C204        C  0.50481311  0.12644610  0.22146690     0.04400
C205        C  0.50225269  0.09183294  0.18831523    -0.11700
C206        C  0.48991913  0.10182216  0.14165390     0.01900
C207        C  0.48672138  0.14882705  0.12983425    -0.10200
C208        C  0.48970547  0.18289187  0.16278650     0.04400
C209        C  0.49809427  0.17136666  0.20798987    -0.09700
H210        H  0.51071939  0.05780164  0.19940988     0.10000
H211        H  0.48339187  0.16050973  0.09506682     0.07600
H212        H  0.49968517  0.19797187  0.23315616     0.07400
C213        C  0.49514806  0.13039789  0.81933389     0.04400
C214        C  0.50035795  0.17573040  0.83148478    -0.11700
C215        C  0.50366488  0.18813710  0.87689994     0.01900
C216        C  0.50493746  0.15370033  0.91139961    -0.10200
C217        C  0.50006389  0.10657965  0.90066378     0.04400
C218        C  0.49332600  0.09595478  0.85376046    -0.09700
H219        H  0.49929167  0.20208898  0.80502607     0.10000
H220        H  0.50927063  0.16395981  0.94639750     0.07600
H221        H  0.48662130  0.06117863  0.84370461     0.07400
C222        C  0.51195847  0.78930751  0.87669668     0.04400
C223        C  0.51475584  0.82197643  0.91149859    -0.11700
C224        C  0.50527105  0.86869008  0.90205329     0.01900
C225        C  0.49435160  0.88115093  0.85622825    -0.10200
C226        C  0.49575677  0.84912269  0.82107690     0.04400
C227        C  0.50377612  0.80369994  0.83195873    -0.09700
H228        H  0.52355586  0.81075495  0.94573180     0.10000
H229        H  0.48537461  0.91578106  0.84748097     0.07600
H230        H  0.50315538  0.77887050  0.80503145     0.07400
N231        N  0.50607177  0.91234425  0.02352762    -0.35300
N232        N  0.50310350  0.98641619  0.95221295    -0.55900
N233        N  0.49883608  0.05597734  0.02202795    -0.35300
N234        N  0.49491096  0.98188778  0.09343389    -0.55900
C235        C  0.49174911  0.89168290  0.98463493     0.28300
C236        C  0.48878187  0.88754476  0.05937417     0.28300
C237        C  0.48452959  0.07736076  0.98291884     0.28300
C238        C  0.47832396  0.07591348  0.05772085     0.28300
C239        C  0.51941858  0.95031917  0.92976143     0.36900
C240        C  0.51698115  0.02468439  0.92882797     0.36900
C241        C  0.48611956  0.94364881  0.11928771     0.36900
C242        C  0.48152156  0.01767840  0.11849714     0.36900
C243        C  0.46296025  0.85509622  0.99592632    -0.20600
C244        C  0.46055265  0.85293837  0.04282761    -0.20600
C245        C  0.45257973  0.10932564  0.99379591    -0.20600
C246        C  0.44802814  0.10777632  0.04062443    -0.20600
C247        C  0.54563343  0.96584823  0.89316921    -0.21600
C248        C  0.54423209  0.01280658  0.89266570    -0.21600
C249        C  0.46283257  0.95515644  0.15821132    -0.21600
C250        C  0.45997374  0.00162848  0.15770831    -0.21600
C251        C  0.50615189  0.90412110  0.93963122    -0.17000
C252        C  0.49458631  0.89800111  0.10639848    -0.17000
C253        C  0.48505975  0.06455444  0.10506475    -0.17000
C254        C  0.50108902  0.06910016  0.93813026    -0.17000
H255        H  0.44454606  0.83293919  0.97277159     0.15900
H256        H  0.43850444  0.82983665  0.06232182     0.15900
H257        H  0.43345845  0.13062005  0.97038212     0.15900
H258        H  0.42387512  0.12701492  0.05975953     0.15900
H259        H  0.56347537  0.94549369  0.86897388     0.14200
H260        H  0.56107537  0.03543590  0.86815669     0.14200
H261        H  0.44693829  0.93233516  0.18317701     0.14200
H262        H  0.44164781  0.02112770  0.18225854     0.14200
H263        H  0.52939787  0.93972559  0.02559596     0.27500
H264        H  0.52437367  0.03185340  0.02458739     0.27500
C265        C  0.20873098  0.87550452  0.47975336     0.04400
C266        C  0.17463099  0.90869180  0.47974274    -0.11700
C267        C  0.12697971  0.89637983  0.47828167     0.01900
C268        C  0.11621028  0.84893887  0.48408446    -0.10200
C269        C  0.15053588  0.81600771  0.48408373     0.04400
C270        C  0.19610784  0.82963885  0.48059430    -0.09700
H271        H  0.18626398  0.94359683  0.48272935     0.10000
H272        H  0.08158822  0.83686879  0.48993010     0.07600
H273        H  0.22232970  0.80412453  0.48080407     0.07400
C274        C  0.81077353  0.15960175  0.50755267     0.04400
C275        C  0.84383629  0.12543071  0.50816039    -0.11700
C276        C  0.88882762  0.13459167  0.49199301     0.01900
C277        C  0.90008830  0.18009676  0.47737485    -0.10200
C278        C  0.86775373  0.21497177  0.48008079     0.04400
C279        C  0.82342650  0.20384027  0.49413246    -0.09700
H280        H  0.83416730  0.09164243  0.52066837     0.10000
H281        H  0.93406303  0.18867304  0.46502256     0.07600
H282        H  0.79838017  0.23042309  0.49533633     0.07400
C283        C  0.20877825  0.15747492  0.49938517     0.04400
C284        C  0.17406330  0.12329461  0.49994928    -0.11700
C285        C  0.12777900  0.13414470  0.49078699     0.01900
C286        C  0.11796039  0.18048316  0.48165158    -0.10200
C287        C  0.15222856  0.21484220  0.48489287     0.04400
C288        C  0.19726999  0.20291359  0.49346938    -0.09700
H289        H  0.18353606  0.08836299  0.50646316     0.10000
H290        H  0.08374004  0.19015844  0.47201139     0.07600
H291        H  0.22407712  0.22912235  0.49307992     0.07400
C292        C  0.86045668  0.81086105  0.50037377     0.04400
C293        C  0.89458027  0.84542932  0.49596344    -0.11700
C294        C  0.88364435  0.89257606  0.49365415     0.01900
C295        C  0.83751962  0.90275985  0.50460691    -0.10200
C296        C  0.80331590  0.86812117  0.50944290     0.04400
C297        C  0.81513735  0.82268695  0.50565533    -0.09700
H298        H  0.92944680  0.83454740  0.49578181     0.10000
H299        H  0.82759045  0.93724939  0.51058969     0.07600
H300        H  0.78914669  0.79598135  0.51003082     0.07400
N301        N  0.00556455  0.94185969  0.48899893    -0.35300
N302        N  0.07770626  0.01436947  0.48737540    -0.55900
N303        N  0.00675890  0.08443104  0.48847201    -0.35300
N304        N  0.93464563  0.01379693  0.49126282    -0.55900
C305        C  0.04193492  0.91936694  0.47220868     0.28300
C306        C  0.96680288  0.91905454  0.47551169     0.28300
C307        C  0.04495505  0.10669638  0.50357016     0.28300
C308        C  0.97009755  0.10697963  0.50364238     0.28300
C309        C  0.10082681  0.97947995  0.46962589     0.36900
C310        C  0.09991059  0.05333688  0.47344839     0.36900
C311        C  0.90828211  0.97707774  0.47953987     0.36900
C312        C  0.91085536  0.05158512  0.47937297     0.36900
C313        C  0.02573043  0.88440399  0.44503175    -0.20600
C314        C  0.97880963  0.88443094  0.44682906    -0.20600
C315        C  0.03224458  0.14260363  0.53041256    -0.20600
C316        C  0.98508968  0.14303127  0.53008952    -0.20600
C317        C  0.13522597  0.99669401  0.44137836    -0.21600
C318        C  0.13517303  0.04328585  0.44443321    -0.21600
C319        C  0.86923948  0.99187591  0.45724728    -0.21600
C320        C  0.87067581  0.03874587  0.45748089    -0.21600
C321        C  0.08924243  0.93244932  0.47612638    -0.17000
C322        C  0.92064752  0.93049052  0.48537042    -0.17000
C323        C  0.92396010  0.09703813  0.49120264    -0.17000
C324        C  0.09020736  0.09734427  0.48947316    -0.17000
H325        H  0.04554582  0.86296336  0.42348022     0.15900
H326        H  0.95602449  0.86284984  0.42705910     0.15900
H327        H  0.05451993  0.16649910  0.54797440     0.15900
H328        H  0.96426947  0.16721325  0.54732494     0.15900
H329        H  0.15710185  0.97781243  0.41937744     0.14200
H330        H  0.15791596  0.06707887  0.42660240     0.14200
H331        H  0.84321159  0.97117702  0.44065498     0.14200
H332        H  0.84528865  0.06076751  0.44254245     0.14200
H333        H  0.00709303  0.96930265  0.51103517     0.27500
H334        H  0.00579453  0.05835536  0.46478126     0.27500
O335        O  0.42090646  0.93337322  0.45140229    -0.74000
O336        O  0.43267295  0.87958307  0.50335978    -0.52900
C337        C  0.40553143  0.89995412  0.47548277     0.79700
O338        O  0.57297798  0.08867047  0.42890504    -0.58600
O339        O  0.52117897  0.13871763  0.44564764    -0.51600
C340        C  0.54583589  0.11950894  0.41567436     0.71800
O341        O  0.56164358  0.93525897  0.40616356    -0.73100
O342        O  0.51679982  0.88311315  0.44455077    -0.53700
C343        C  0.53919333  0.89731213  0.40879200     0.77800
O344        O  0.40458004  0.08660084  0.46188959    -0.58300
O345        O  0.43359613  0.13279955  0.51538499    -0.51400
C346        C  0.40019254  0.11875458  0.48993713     0.74400
Zr347      Zr  0.42091161  0.00870340  0.48268727     2.54700
O348        O  0.36767233  0.01006419  0.41866699    -0.78800
O349        O  0.34819080  0.99888439  0.52205386    -0.92300
Zr350      Zr  0.54565990  0.01036962  0.43285032     2.64700
O351        O  0.50735581  0.02004419  0.35948335    -0.97200
O352        O  0.61459847  0.01092516  0.38683924    -0.79300
O353        O  0.48250085  0.96487936  0.45776717    -0.82600
O354        O  0.48356991  0.05422793  0.45680815    -2.17300
O355        O  0.44657982  0.08455372  0.61073343    -0.66000
O356        O  0.50070730  0.13596744  0.59431995    -0.50600
C357        C  0.47389931  0.11631218  0.62364231     0.72700
O358        O  0.60574807  0.92915186  0.58300363    -0.58900
O359        O  0.58017047  0.87961399  0.53188317    -0.50900
C360        C  0.61328867  0.89709082  0.55549718     0.74500
O361        O  0.61832273  0.08335470  0.57974649    -0.70300
O362        O  0.58826396  0.13287889  0.52901398    -0.49000
C363        C  0.62234024  0.11770366  0.55259683     0.75900
O364        O  0.44410175  0.93055644  0.62553417    -0.65700
O365        O  0.49513840  0.88262773  0.59757388    -0.52900
C366        C  0.47002543  0.89658257  0.63046193     0.74300
Zr367      Zr  0.47175521  0.00666151  0.60754729     2.78100
O368        O  0.51640981  0.00717350  0.67790383    -0.96400
O369        O  0.41177658  0.01032859  0.66438684    -0.77200
Zr370      Zr  0.59658968  0.00722661  0.55683838     2.70100
O371        O  0.64908820  0.00505268  0.62141519    -0.78500
O372        O  0.66576455  0.00791741  0.51105155    -0.97600
Zr373      Zr  0.50656769  0.91676433  0.52031654     2.21500
Zr374      Zr  0.51044597  0.10008133  0.52036651     2.11100
O375        O  0.53573400  0.05151038  0.58327720    -2.46200
O376        O  0.53322675  0.96224690  0.58291754    -0.78300
O377        O  0.44683343  0.05232100  0.54527583    -0.70500
O378        O  0.57074653  0.96367144  0.49403680    -2.31400
O379        O  0.44378687  0.96259097  0.54553222    -2.27600
O380        O  0.57202263  0.05378846  0.49520329    -0.72200
H381        H  0.47386221  0.07139579  0.43028495     0.79800
H382        H  0.59564394  0.94614300  0.48283614     0.80900
H383        H  0.54606882  0.06822914  0.60949195     0.83100
H384        H  0.41703452  0.94451636  0.55380658     0.80700
H385        H  0.63792044  0.99700884  0.40695821     0.43700
H386        H  0.68930726  0.02295070  0.53035706     0.42700
H387        H  0.62907729  0.00043880  0.64829531     0.42400
H388        H  0.50177558  0.02992901  0.69708162     0.40300
H389        H  0.38304397  0.01033361  0.64639955     0.43400
H390        H  0.32948661  0.02418291  0.51014239     0.38200
H391        H  0.38716975  0.01677578  0.39177052     0.44300
H392        H  0.52950956  0.00939045  0.33689124     0.40800
H393        H  0.50875024  0.97755136  0.69308375     0.45700
H394        H  0.35506394  0.00706688  0.55398679     0.44400
H395        H  0.48266705  0.99639408  0.35975283     0.44500
H396        H  0.67491538  0.97575589  0.51010328     0.44900
C397        C  0.74365864  0.89705669  0.56222354     0.24900
C398        C  0.75493171  0.87765161  0.52055503    -0.23200
C399        C  0.71938299  0.86153527  0.49215469     0.19800
C400        C  0.67350608  0.86578792  0.50445580     0.24900
C401        C  0.66182346  0.88556316  0.54606490    -0.23100
C402        C  0.69774273  0.90051665  0.57513307     0.19800
F403        F  0.68861797  0.91843817  0.61627682    -0.13100
F404        F  0.77721715  0.91134633  0.59114990    -0.15500
F405        F  0.64059950  0.85190075  0.47465425    -0.15500
F406        F  0.72919943  0.84185984  0.45200242    -0.13100
C407        C  0.32673636  0.13973047  0.45336253     0.24900
C408        C  0.35361813  0.13694734  0.49325974    -0.23200
C409        C  0.33213697  0.14060142  0.53586955     0.19800
C410        C  0.28453758  0.14576329  0.53828036     0.24900
C411        C  0.25788911  0.14689133  0.49828510    -0.23100
C412        C  0.27950552  0.14462999  0.45587167     0.19800
F413        F  0.25465932  0.14710422  0.41668132    -0.13100
F414        F  0.34623126  0.13621252  0.41171142    -0.15500
F415        F  0.26430539  0.14908985  0.57954562    -0.15500
F416        F  0.35664871  0.13638399  0.57509754    -0.13100
C417        C  0.75103290  0.13206451  0.56354078     0.24900
C418        C  0.76235582  0.15055599  0.52052548    -0.23200
C419        C  0.72690327  0.16403841  0.49083134     0.19800
C420        C  0.68107895  0.15708255  0.50291604     0.24900
C421        C  0.66948432  0.13634093  0.54504281    -0.23100
C422        C  0.70514270  0.12524162  0.57585020     0.19800
F423        F  0.69571941  0.10675677  0.61765833    -0.13100
F424        F  0.78441863  0.12108008  0.59387124    -0.15500
F425        F  0.64824110  0.16811967  0.47201581    -0.15500
F426        F  0.73667733  0.18265785  0.44916636    -0.13100
C427        C  0.32849966  0.90152536  0.43713497     0.24900
C428        C  0.35525531  0.89127943  0.47607601    -0.23200
C429        C  0.33283517  0.87916563  0.51701357     0.19800
C430        C  0.28496505  0.87662968  0.51874539     0.24900
C431        C  0.25842354  0.88682593  0.47987686    -0.23100
C432        C  0.28060241  0.89928479  0.43907169     0.19800
F433        F  0.25583316  0.90759291  0.40063919    -0.13100
F434        F  0.34876367  0.91311953  0.39688164    -0.15500
F435        F  0.26431952  0.86365701  0.55839995    -0.15500
F436        F  0.35712541  0.87132399  0.55583304    -0.13100
C437        C  0.44685322  0.87776186  0.75663116     0.24900
C438        C  0.48880967  0.86139188  0.77221431    -0.23200
C439        C  0.52255298  0.85137386  0.74009057     0.19800
C440        C  0.51520873  0.85931258  0.69337653     0.24900
C441        C  0.47372629  0.87715863  0.67761961    -0.23100
C442        C  0.43913860  0.88512818  0.70988258     0.19800
F443        F  0.39783567  0.90071408  0.69625987    -0.13100
F444        F  0.41298481  0.88577279  0.78664744    -0.15500
F445        F  0.54969103  0.85179101  0.66394122    -0.15500
F446        F  0.56323819  0.83468911  0.75419457    -0.13100
C447        C  0.52793299  0.12986152  0.74090074     0.24900
C448        C  0.49025377  0.12166350  0.76978657    -0.23200
C449        C  0.44670930  0.11562785  0.75014324     0.19800
C450        C  0.44110538  0.11663178  0.70255482     0.24900
C451        C  0.47893924  0.12386810  0.67349319    -0.23100
C452        C  0.52244141  0.13089992  0.69331221     0.19800
F453        F  0.55997885  0.13718510  0.66674888    -0.13100
F454        F  0.57014386  0.13758333  0.75904554    -0.15500
F455        F  0.39842612  0.11117643  0.68476536    -0.15500
F456        F  0.40934562  0.11050641  0.77711938    -0.13100
C457        C  0.56939498  0.11250888  0.33343143     0.24900
C458        C  0.53612442  0.12424789  0.36564504    -0.23200
C459        C  0.49178782  0.13356574  0.34961222     0.19800
C460        C  0.48097242  0.13052317  0.30305013     0.24900
C461        C  0.51411783  0.11852648  0.27103036    -0.23100
C462        C  0.55860039  0.11013272  0.28670297     0.19800
F463        F  0.59221191  0.10198286  0.25647087    -0.13100
F464        F  0.61282326  0.10411460  0.34710131    -0.15500
F465        F  0.43814300  0.14078514  0.28879350    -0.15500
F466        F  0.45838244  0.14460749  0.37901947    -0.13100
C467        C  0.49494578  0.85154265  0.35142712     0.24900
C468        C  0.53663002  0.87183276  0.36546742    -0.23200
C469        C  0.57199375  0.87764955  0.33305296     0.19800
C470        C  0.56459399  0.86679208  0.28725224     0.24900
C471        C  0.52207300  0.84920756  0.27288390    -0.23100
C472        C  0.48793548  0.83994344  0.30565998     0.19800
F473        F  0.44695860  0.82147302  0.29289239    -0.13100
F474        F  0.45966747  0.84634389  0.38106434    -0.15500
F475        F  0.59894786  0.87362107  0.25679223    -0.15500
F476        F  0.61331575  0.89571752  0.34537555    -0.13100
C477        C  0.89158941  0.32784110  0.41737851     0.24900
C478        C  0.88323838  0.35955214  0.45186099    -0.23200
C479        C  0.87267155  0.34272551  0.49588611     0.19800
C480        C  0.87044170  0.29577808  0.50517444     0.24900
C481        C  0.87846943  0.26415326  0.47080224    -0.23100
C482        C  0.88901516  0.28062693  0.42674562     0.19800
F483        F  0.89508767  0.25105396  0.39244218    -0.13100
F484        F  0.90158881  0.34254672  0.37432738    -0.15500
F485        F  0.85989292  0.28094667  0.54807470    -0.15500
F486        F  0.86609457  0.37165309  0.53063150    -0.13100
C487        C  0.89642300  0.69659038  0.54865061     0.24900
C488        C  0.88285961  0.66633940  0.51392682    -0.23200
C489        C  0.86236752  0.68460031  0.47416907     0.19800
C490        C  0.85623253  0.73175663  0.46920048     0.24900
C491        C  0.87128089  0.76172968  0.50331513    -0.23100
C492        C  0.89103604  0.74366718  0.54316369     0.19800
F493        F  0.90384720  0.77164175  0.57750649    -0.13100
F494        F  0.91466553  0.68064736  0.58833707    -0.15500
F495        F  0.83579012  0.74830962  0.43085642    -0.15500
F496        F  0.84955460  0.65713870  0.43941466    -0.13100
C497        C  0.14740780  0.34260612  0.49998762     0.24900
C498        C  0.13040236  0.35717916  0.45730247    -0.23200
C499        C  0.12140808  0.32428801  0.42365073     0.19800
C500        C  0.12685759  0.27795380  0.43329351     0.24900
C501        C  0.14272823  0.26348188  0.47617647    -0.23100
C502        C  0.15380478  0.29618648  0.50918425     0.19800
F503        F  0.16947936  0.28293670  0.55092701    -0.13100
F504        F  0.15531430  0.37282836  0.53374217    -0.15500
F505        F  0.11715070  0.24716210  0.40047009    -0.15500
F506        F  0.10633703  0.33687130  0.38147127    -0.13100
C507        C  0.13144613  0.70160165  0.54264491     0.24900
C508        C  0.13333588  0.67143995  0.50584860    -0.23200
C509        C  0.14066730  0.68957553  0.46167829     0.19800
C510        C  0.14426121  0.73687343  0.45430574     0.24900
C511        C  0.14074881  0.76675288  0.49091224    -0.23100
C512        C  0.13574097  0.74871584  0.53523895     0.19800
F513        F  0.13586226  0.77681776  0.57145421    -0.13100
F514        F  0.12449037  0.68543646  0.58582643    -0.15500
F515        F  0.15089849  0.75365503  0.41133828    -0.15500
F516        F  0.14162384  0.66174465  0.42531547    -0.13100
C517        C  0.85537792  0.54338019  0.69824201     0.24900
C518        C  0.86887791  0.51157326  0.73193368    -0.23200
C519        C  0.88796970  0.47071979  0.71858296     0.19800
C520        C  0.89346225  0.46146915  0.67261482     0.24900
C521        C  0.88103072  0.49347192  0.63838798    -0.23100
C522        C  0.86196635  0.53473079  0.65180624     0.19800
F523        F  0.85062430  0.56706218  0.62028470    -0.13100
F524        F  0.83573672  0.58270098  0.71040990    -0.15500
F525        F  0.91072601  0.42058356  0.66182624    -0.15500
F526        F  0.89916711  0.43841251  0.75020723    -0.13100
C527        C  0.13837551  0.51555936  0.70275511     0.24900
C528        C  0.12390770  0.47802643  0.73023752    -0.23200
C529        C  0.10945802  0.43778220  0.70899314     0.19800
C530        C  0.10900833  0.43515188  0.66129401     0.24900
C531        C  0.12220903  0.47306613  0.63355169    -0.23100
C532        C  0.13729214  0.51326038  0.65496409     0.19800
F533        F  0.15017563  0.55066317  0.62979950    -0.13100
F534        F  0.15437055  0.55432518  0.72242656    -0.15500
F535        F  0.09667988  0.39491886  0.64217786    -0.15500
F536        F  0.09794857  0.40021469  0.73453976    -0.13100
C537        C  0.85286868  0.48726595  0.26353773     0.24900
C538        C  0.86201048  0.52063654  0.22944253    -0.23200
C539        C  0.87806019  0.56392836  0.24217846     0.19800
C540        C  0.88561304  0.57350000  0.28822257     0.24900
C541        C  0.87731489  0.53978047  0.32250311    -0.23100
C542        C  0.86038062  0.49669178  0.30955182     0.19800
F543        F  0.85359625  0.46273011  0.34106971    -0.13100
F544        F  0.83749414  0.44498908  0.25204854    -0.15500
F545        F  0.90174004  0.61568344  0.29918745    -0.15500
F546        F  0.88563981  0.59718739  0.21009514    -0.13100
C547        C  0.10848947  0.55354664  0.24562078     0.24900
C548        C  0.12143749  0.50984186  0.23305901    -0.23200
C549        C  0.13413910  0.47852790  0.26754138     0.19800
C550        C  0.13405212  0.49063645  0.31361999     0.24900
C551        C  0.12145396  0.53465320  0.32638078    -0.23100
C552        C  0.10858756  0.56586729  0.29164586     0.19800
F553        F  0.09714697  0.60891302  0.30210490    -0.13100
F554        F  0.09777150  0.58508332  0.21307343    -0.15500
F555        F  0.14548093  0.45884373  0.34567351    -0.15500
F556        F  0.14739532  0.43621147  0.25635739    -0.13100
C557        C  0.50754493  0.31071277  0.14951663     0.24900
C558        C  0.46567281  0.32343892  0.12988675    -0.23200
C559        C  0.43110787  0.28966368  0.12357207     0.19800
C560        C  0.43923667  0.24401628  0.13403310     0.24900
C561        C  0.48186938  0.23115358  0.15108259    -0.23100
C562        C  0.51547228  0.26489330  0.16024669     0.19800
F563        F  0.55666135  0.25315912  0.17784011    -0.13100
F564        F  0.54211727  0.34189271  0.15478512    -0.15500
F565        F  0.40541241  0.21223614  0.12758532    -0.15500
F566        F  0.38999783  0.30057764  0.10520576    -0.13100
C567        C  0.53300054  0.65382522  0.16357755     0.24900
C568        C  0.49591874  0.63576824  0.13881565    -0.23200
C569        C  0.45988405  0.66447055  0.12628695     0.19800
C570        C  0.46242160  0.71107165  0.13543819     0.24900
C571        C  0.50054342  0.72965800  0.15832989    -0.23100
C572        C  0.53513051  0.70031479  0.17369605     0.19800
F573        F  0.57241986  0.71723142  0.19599941    -0.13100
F574        F  0.56893623  0.62725687  0.17444444    -0.15500
F575        F  0.42812319  0.73824480  0.12102843    -0.15500
F576        F  0.42397190  0.64792232  0.10157461    -0.13100
C577        C  0.48655128  0.66231601  0.87071948     0.24900
C578        C  0.52924243  0.64370045  0.88131187    -0.23200
C579        C  0.56564933  0.67380692  0.89343803     0.19800
C580        C  0.55932378  0.72103650  0.89537849     0.24900
C581        C  0.51673760  0.73939136  0.88457576    -0.23100
C582        C  0.48046857  0.70951614  0.87225123     0.19800
F583        F  0.43891407  0.72635113  0.86137128    -0.13100
F584        F  0.45004215  0.63477395  0.86083675    -0.15500
F585        F  0.59521524  0.74899742  0.90628993    -0.15500
F586        F  0.60766915  0.65746745  0.90315880    -0.13100
C587        C  0.68290277  0.43632054  0.85970877     0.24900
C588        C  0.65113471  0.47156265  0.85638193    -0.23200
C589        C  0.66616205  0.51514771  0.84153304     0.19800
C590        C  0.71268376  0.52420878  0.83373601     0.24900
C591        C  0.74469224  0.48975192  0.84052749    -0.23100
C592        C  0.72932153  0.44539114  0.85184570     0.19800
F593        F  0.75950031  0.41118931  0.85650072    -0.13100
F594        F  0.66935476  0.39389853  0.87416344    -0.15500
F595        F  0.72690778  0.56734148  0.82254255    -0.15500
F596        F  0.63664988  0.55010811  0.83964294    -0.13100
C597        C  0.44454182  0.29782792  0.89797706     0.24900
C598        C  0.47560858  0.33127426  0.88030564    -0.23200
C599        C  0.51843215  0.31681444  0.86518592     0.19800
C600        C  0.52929206  0.27033547  0.86714969     0.24900
C601        C  0.49848611  0.23746001  0.88601695    -0.23100
C602        C  0.45642223  0.25199138  0.90213653     0.19800
F603        F  0.42530312  0.22109097  0.91902729    -0.13100
F604        F  0.40167489  0.30911586  0.90990694    -0.15500
F605        F  0.56945098  0.25710470  0.84936240    -0.15500
F606        F  0.54987216  0.34747139  0.84852711    -0.13100
C607        C  0.30395239  0.54299329  0.86675058     0.24900
C608        C  0.33607844  0.50825186  0.86150880    -0.23200
C609        C  0.32001370  0.46529109  0.84701127     0.19800
C610        C  0.27291970  0.45660855  0.84072464     0.24900
C611        C  0.24096763  0.49056204  0.84904607    -0.23100
C612        C  0.25708138  0.53417663  0.86054675     0.19800
F613        F  0.22732809  0.56856554  0.86491041    -0.13100
F614        F  0.31786618  0.58555658  0.87886320    -0.15500
F615        F  0.25833932  0.41471611  0.82722069    -0.15500
F616        F  0.34952008  0.43094417  0.84136437    -0.13100
C617        C  0.31464614  0.46591737  0.11837241     0.24900
C618        C  0.33537287  0.50910946  0.11013179    -0.23200
C619        C  0.30724984  0.54712328  0.10453570     0.19800
C620        C  0.25964730  0.54218343  0.10747067     0.24900
C621        C  0.23916104  0.49922980  0.11626251    -0.23100
C622        C  0.26695585  0.46117932  0.12188177     0.19800
F623        F  0.24777953  0.41948870  0.13126634    -0.13100
F624        F  0.34029708  0.42807089  0.12142997    -0.15500
F625        F  0.23350932  0.57957470  0.10285053    -0.15500
F626        F  0.32596001  0.58929061  0.09651937    -0.13100
C627        C  0.66123857  0.49954563  0.13376169     0.24900
C628        C  0.64514340  0.45683383  0.11869028    -0.23200
C629        C  0.67765398  0.42466135  0.10574539     0.19800
C630        C  0.72467683  0.43547437  0.10649928     0.24900
C631        C  0.74047206  0.47831615  0.12098183    -0.23100
C632        C  0.70822284  0.51005907  0.13495604     0.19800
F633        F  0.72236766  0.55179136  0.14937694    -0.13100
F634        F  0.63155159  0.53206872  0.14545544    -0.15500
F635        F  0.75485145  0.40359884  0.09425647    -0.15500
F636        F  0.66393445  0.38252268  0.09219169    -0.13100
loop_ 
_geom_bond_atom_site_label_1 
_geom_bond_atom_site_label_2 
_geom_bond_distance 
_geom_bond_site_symmetry_2 
_ccdc_geom_bond_type 
O1          Zr13   2.407   1_554  S
O1            C3   1.278       .  A
O2          Zr39   2.459       .  S
O2            C3   1.293       .  A
C3          C558   1.478       .  S
O4          Zr16   2.408       .  S
O4            C6   1.282       .  A
O5          Zr40   2.457       .  S
O5            C6   1.295       .  A
C6          C588   1.470       .  S
O7          Zr16   2.410   1_554  S
O7            C9   1.271       .  A
O8          Zr39   2.466       .  S
O8            C9   1.288       .  A
C9          C628   1.494       .  S
O10         Zr13   2.407       .  S
O10          C12   1.270       .  A
O11         Zr40   2.469       .  S
O11          C12   1.286       .  A
C12         C598   1.500       .  S
Zr13         O14   2.436       .  S
Zr13         O15   2.438       .  S
Zr13         O19   2.361   1_556  S
Zr13         O20   2.383       .  S
Zr13         O43   2.369       .  S
Zr13         O45   2.364   1_556  S
O14          H57   0.990       .  S
O15          H56   0.990   1_556  S
O15          H60   0.990   1_556  S
Zr16         O17   2.440       .  S
Zr16         O18   2.436   1_556  S
Zr16         O20   2.361       .  S
Zr16         O19   2.359   1_556  S
Zr16         O44   2.385   1_556  S
Zr16         O46   2.358       .  S
O17          H58   0.990   1_556  S
O17          H61   0.989       .  S
O18          H51   0.990   1_554  S
O19         Zr39   2.396       .  S
O20         Zr40   2.434       .  S
O20          H47   0.966       .  S
O21         Zr33   2.410       .  S
O21          C23   1.273       .  A
O22         Zr40   2.490       .  S
O22          C23   1.296       .  A
C23         C608   1.493       .  S
O24         Zr36   2.400   1_554  S
O24          C26   1.280       .  A
O25         Zr39   2.466       .  S
O25          C26   1.295       .  A
C26         C568   1.468       .  S
O27         Zr36   2.409       .  S
O27          C29   1.270       .  A
O28         Zr40   2.474       .  S
O28          C29   1.290       .  A
C29         C578   1.493       .  S
O30         Zr33   2.417   1_554  S
O30          C32   1.274       .  A
O31         Zr39   2.447       .  S
O31          C32   1.285       .  A
C32         C618   1.484       .  S
Zr33         O34   2.435       .  S
Zr33         O35   2.435       .  S
Zr33         O41   2.379       .  S
Zr33         O42   2.363   1_556  S
Zr33         O45   2.374   1_556  S
Zr33         O43   2.364       .  S
O34          H54   0.989   1_556  S
O34          H59   0.990   1_556  S
O35          H55   0.990       .  S
Zr36         O37   2.436       .  S
Zr36         O38   2.435   1_556  S
Zr36         O42   2.358   1_556  S
Zr36         O41   2.371       .  S
Zr36         O46   2.356       .  S
Zr36         O44   2.358   1_556  S
O37          H53   0.990       .  S
O38          H52   0.990   1_554  S
O38          H62   0.990   1_554  S
Zr39         O42   2.396       .  S
Zr39         O44   2.421       .  S
Zr39         O45   2.427       .  S
Zr40         O41   2.428       .  S
Zr40         O43   2.408       .  S
Zr40         O46   2.401       .  S
O41          H49   0.964       .  S
O44          H48   0.965       .  S
O45          H50   0.965       .  S
C63         C621   1.480       .  S
C63          C64   1.389       .  A
C63          C68   1.407       .  A
C64          C65   1.392       .  A
C64          H69   1.085       .  S
C65         C548   1.489       .  S
C65          C66   1.416       .  A
C66          C67   1.433       .  A
C66          H70   1.078       .  S
C67         C119   1.547       .  S
C67          C68   1.427       .  A
C68          H71   1.077       .  S
C72         C538   1.481       .  S
C72          C73   1.408       .  A
C72          C77   1.391       .  A
C73          C74   1.419       .  A
C73          H78   1.083       .  S
C74         C120   1.523       .  S
C74          C75   1.424       .  A
C75          C76   1.416       .  A
C75          H79   1.082       .  S
C76         C631   1.491       .  S
C76          C77   1.394       .  A
C77          H80   1.085       .  S
C81         C611   1.486       .  S
C81          C82   1.414       .  A
C81          C86   1.387       .  A
C82          C83   1.431       .  A
C82          H87   1.079       .  S
C83         C122   1.553       .  S
C83          C84   1.433       .  A
C84          C85   1.416       .  A
C84          H88   1.076       .  S
C85         C528   1.488       .  S
C85          C86   1.390       .  A
C86          H89   1.085       .  S
C90         C518   1.478       .  S
C90          C91   1.410       .  A
C90          C95   1.393       .  A
C91          C92   1.418       .  A
C91          H96   1.083       .  S
C92         C121   1.520       .  S
C92          C93   1.416       .  A
C93          C94   1.410       .  A
C93          H97   1.082       .  S
C94         C591   1.476       .  S
C94          C95   1.392       .  A
C95          H98   1.085       .  S
N99         C104   1.361       .  A
N99         C103   1.357   1_655  A
N99         H131   1.043       .  S
N100        C107   1.362   1_556  A
N100        C108   1.364       .  A
N101        C106   1.359       .  A
N101        C105   1.360   1_655  A
N101        H132   1.044       .  S
N102        C109   1.357   1_556  A
N102        C110   1.355       .  A
C103        C111   1.387       .  A
C103        C119   1.424       .  A
C104        C120   1.427       .  A
C104        C112   1.386       .  A
C105        C113   1.387       .  A
C105        C122   1.426       .  A
C106        C121   1.423       .  A
C106        C114   1.385       .  A
C107        C119   1.431       .  A
C107        C115   1.385       .  A
C108        C122   1.430       .  A
C108        C116   1.385       .  A
C109        C117   1.385       .  A
C109        C120   1.421       .  A
C110        C118   1.388       .  A
C110        C121   1.423       .  A
C111        C112   1.378   1_455  A
C111        H123   1.082       .  S
C112        H124   1.082       .  S
C113        C114   1.377   1_455  A
C113        H125   1.082       .  S
C114        H126   1.082       .  S
C115        C116   1.372   1_554  A
C115        H127   1.082       .  S
C116        H128   1.082       .  S
C117        C118   1.379   1_554  A
C117        H129   1.082       .  S
C118        H130   1.082       .  S
O133       Zr145   2.425       .  S
O133        C135   1.276       .  A
O134       Zr171   2.451       .  S
O134        C135   1.286       .  A
C135        C551   1.496       .  S
O136       Zr148   2.429   1_655  S
O136        C138   1.278       .  A
O137       Zr172   2.450       .  S
O137        C138   1.288       .  A
C138        C488   1.493       .  S
O139       Zr148   2.408       .  S
O139        C141   1.271       .  A
O140       Zr171   2.470       .  S
O140        C141   1.292       .  A
C141        C508   1.480       .  S
O142       Zr145   2.412   1_655  S
O142        C144   1.274       .  A
O143       Zr172   2.460       .  S
O143        C144   1.292       .  A
C144        C541   1.482       .  S
Zr145       O146   2.434       .  S
Zr145       O147   2.436       .  S
Zr145       O151   2.372       .  S
Zr145       O152   2.377   1_455  S
Zr145       O175   2.370   1_455  S
Zr145       O177   2.366       .  S
O146        H189   0.990       .  S
O147        H188   0.990       .  S
O147        H192   0.990   1_455  S
Zr148       O149   2.438       .  S
Zr148       O150   2.433       .  S
Zr148       O152   2.366   1_455  S
Zr148       O151   2.372       .  S
Zr148       O176   2.382       .  S
Zr148       O178   2.364   1_455  S
O149        H190   0.990       .  S
O149        H193   0.990   1_455  S
O150        H183   0.990       .  S
O151       Zr171   2.416       .  S
O152       Zr172   2.428       .  S
O152        H179   0.964       .  S
O153       Zr165   2.417   1_655  S
O153        C155   1.274       .  A
O154       Zr172   2.460       .  S
O154        C155   1.289       .  A
C155        C478   1.493       .  S
O156       Zr168   2.416       .  S
O156        C158   1.273       .  A
O157       Zr171   2.457       .  S
O157        C158   1.286       .  A
C158        C531   1.492       .  S
O159       Zr168   2.413   1_655  S
O159        C161   1.272       .  A
O160       Zr172   2.463       .  S
O160        C161   1.289       .  A
C161        C521   1.488       .  S
O162       Zr165   2.412       .  S
O162        C164   1.274       .  A
O163       Zr171   2.462       .  S
O163        C164   1.292       .  A
C164        C498   1.483       .  S
Zr165       O166   2.436   1_455  S
Zr165       O167   2.433       .  S
Zr165       O173   2.364   1_455  S
Zr165       O174   2.365       .  S
Zr165       O177   2.366       .  S
Zr165       O175   2.371   1_455  S
O166        H186   0.990   1_655  S
O166        H191   0.990   1_655  S
O167        H187   0.990       .  S
Zr168       O169   2.433       .  S
Zr168       O170   2.437       .  S
Zr168       O174   2.367       .  S
Zr168       O173   2.375   1_455  S
Zr168       O178   2.370   1_455  S
Zr168       O176   2.367       .  S
O169        H185   0.990       .  S
O170        H184   0.990   1_455  S
O170        H194   0.990       .  S
Zr171       O174   2.410       .  S
Zr171       O176   2.435       .  S
Zr171       O177   2.435       .  S
Zr172       O173   2.435       .  S
Zr172       O175   2.410       .  S
Zr172       O178   2.411       .  S
O173        H181   0.964       .  S
O176        H180   0.966       .  S
O177        H182   0.963       .  S
C195        C571   1.486       .  S
C195        C196   1.393       .  A
C195        C200   1.415       .  A
C196        C197   1.390       .  A
C196        H201   1.085       .  S
C197        C471   1.486       .  S
C197        C198   1.413       .  A
C198        C199   1.428       .  A
C198        H202   1.080       .  S
C199        C252   1.549       .  S
C199        C200   1.426       .  A
C200        H203   1.076       .  S
C204        C461   1.492       .  S
C204        C205   1.421       .  A
C204        C209   1.388       .  A
C205        C206   1.440       .  A
C205        H210   1.079       .  S
C206        C253   1.552       .  S
C206        C207   1.421       .  A
C207        C208   1.406       .  A
C207        H211   1.074       .  S
C208        C561   1.474       .  S
C208        C209   1.384       .  A
C209        H212   1.086       .  S
C213        C448   1.486       .  S
C213        C214   1.389       .  A
C213        C218   1.415       .  A
C214        C215   1.390       .  A
C214        H219   1.086       .  S
C215        C601   1.489       .  S
C215        C216   1.417       .  A
C216        C217   1.429       .  A
C216        H220   1.082       .  S
C217        C254   1.540       .  S
C217        C218   1.428       .  A
C218        H221   1.081       .  S
C222        C581   1.489       .  S
C222        C223   1.415       .  A
C222        C227   1.392       .  A
C223        C224   1.427       .  A
C223        H228   1.082       .  S
C224        C251   1.531       .  S
C224        C225   1.423       .  A
C225        C226   1.411       .  A
C225        H229   1.082       .  S
C226        C438   1.485       .  S
C226        C227   1.390       .  A
C227        H230   1.085       .  S
N231        C236   1.360       .  A
N231        C235   1.362   1_554  A
N231        H263   1.044       .  S
N232        C239   1.357       .  A
N232        C240   1.359   1_565  A
N233        C238   1.360       .  A
N233        C237   1.365   1_554  A
N233        H264   1.044       .  S
N234        C241   1.362       .  A
N234        C242   1.361   1_565  A
C235        C243   1.385       .  A
C235        C251   1.426       .  A
C236        C252   1.427       .  A
C236        C244   1.387       .  A
C237        C245   1.384       .  A
C237        C254   1.431       .  A
C238        C253   1.435       .  A
C238        C246   1.389       .  A
C239        C251   1.426       .  A
C239        C247   1.386       .  A
C240        C254   1.427       .  A
C240        C248   1.387       .  A
C241        C249   1.385       .  A
C241        C252   1.428       .  A
C242        C250   1.384       .  A
C242        C253   1.425       .  A
C243        C244   1.378   1_556  A
C243        H255   1.082       .  S
C244        H256   1.082       .  S
C245        C246   1.381   1_556  A
C245        H257   1.082       .  S
C246        H258   1.082       .  S
C247        C248   1.380   1_565  A
C247        H259   1.082       .  S
C248        H260   1.082       .  S
C249        C250   1.369   1_565  A
C249        H261   1.082       .  S
C250        H262   1.082       .  S
C265        C431   1.484       .  S
C265        C266   1.412       .  A
C265        C270   1.387       .  A
C266        C267   1.433       .  A
C266        H271   1.077       .  S
C267        C321   1.549       .  S
C267        C268   1.427       .  A
C268        C269   1.412       .  A
C268        H272   1.079       .  S
C269        C511   1.477       .  S
C269        C270   1.387       .  A
C270        H273   1.086       .  S
C274        C418   1.486       .  S
C274        C275   1.411       .  A
C274        C279   1.392       .  A
C275        C276   1.420       .  A
C275        H280   1.082       .  S
C276        C323   1.527       .  S
C276        C277   1.426       .  A
C277        C278   1.415       .  A
C277        H281   1.083       .  S
C278        C481   1.490       .  S
C278        C279   1.393       .  A
C279        H282   1.085       .  S
C283        C411   1.479       .  S
C283        C284   1.410       .  A
C283        C288   1.391       .  A
C284        C285   1.422       .  A
C284        H289   1.082       .  S
C285        C324   1.523       .  S
C285        C286   1.417       .  A
C286        C287   1.409       .  A
C286        H290   1.082       .  S
C287        C501   1.479       .  S
C287        C288   1.393       .  A
C288        H291   1.085       .  S
C292        C491   1.485       .  S
C292        C293   1.411       .  A
C292        C297   1.390       .  A
C293        C294   1.429       .  A
C293        H298   1.077       .  S
C294        C322   1.550       .  S
C294        C295   1.430       .  A
C295        C296   1.415       .  A
C295        H299   1.078       .  S
C296        C398   1.490       .  S
C296        C297   1.393       .  A
C297        H300   1.085       .  S
N301        C306   1.364   1_455  A
N301        C305   1.366       .  A
N301        H333   1.043       .  S
N302        C309   1.356   1_545  A
N302        C310   1.359       .  A
N303        C308   1.357   1_455  A
N303        C307   1.357       .  A
N303        H334   1.044       .  S
N304        C311   1.359   1_545  A
N304        C312   1.363       .  A
C305        C313   1.385       .  A
C305        C321   1.432       .  A
C306        C322   1.433       .  A
C306        C314   1.386       .  A
C307        C315   1.388       .  A
C307        C324   1.425       .  A
C308        C323   1.421       .  A
C308        C316   1.386       .  A
C309        C321   1.423       .  A
C309        C317   1.387       .  A
C310        C324   1.420       .  A
C310        C318   1.383       .  A
C311        C319   1.388       .  A
C311        C322   1.430       .  A
C312        C320   1.384       .  A
C312        C323   1.428       .  A
C313        C314   1.375   1_455  A
C313        H325   1.082       .  S
C314        H326   1.082       .  S
C315        C316   1.381   1_455  A
C315        H327   1.082       .  S
C316        H328   1.082       .  S
C317        C318   1.373   1_565  A
C317        H329   1.082       .  S
C318        H330   1.082       .  S
C319        C320   1.376   1_565  A
C319        H331   1.082       .  S
C320        H332   1.082       .  S
O335       Zr347   2.412   1_565  S
O335        C337   1.272       .  A
O336       Zr373   2.451       .  S
O336        C337   1.286       .  A
C337        C428   1.487       .  S
O338       Zr350   2.416       .  S
O338        C340   1.273       .  A
O339       Zr374   2.466       .  S
O339        C340   1.288       .  A
C340        C458   1.498       .  S
O341       Zr350   2.413   1_565  S
O341        C343   1.281       .  A
O342       Zr373   2.473       .  S
O342        C343   1.297       .  A
C343        C468   1.488       .  S
O344       Zr347   2.414       .  S
O344        C346   1.274       .  A
O345       Zr374   2.470       .  S
O345        C346   1.291       .  A
C346        C408   1.481       .  S
Zr347       O348   2.433       .  S
Zr347       O349   2.436   1_545  S
Zr347       O353   2.368   1_545  S
Zr347       O354   2.362       .  S
Zr347       O377   2.370       .  S
Zr347       O379   2.368   1_545  S
O348        H391   0.990       .  S
O349        H390   0.990   1_565  S
O349        H394   0.990   1_565  S
Zr350       O351   2.435       .  S
Zr350       O352   2.434       .  S
Zr350       O354   2.371       .  S
Zr350       O353   2.364   1_545  S
Zr350       O378   2.361   1_545  S
Zr350       O380   2.365       .  S
O351        H392   0.991       .  S
O351        H395   0.990   1_545  S
O352        H385   0.990   1_545  S
O353       Zr373   2.406       .  S
O354       Zr374   2.437       .  S
O354        H381   0.964       .  S
O355       Zr367   2.424       .  S
O355        C357   1.275       .  A
O356       Zr374   2.452       .  S
O356        C357   1.286       .  A
C357        C451   1.489       .  S
O358       Zr370   2.423   1_565  S
O358        C360   1.276       .  A
O359       Zr373   2.457       .  S
O359        C360   1.290       .  A
C360        C401   1.497       .  S
O361       Zr370   2.416       .  S
O361        C363   1.276       .  A
O362       Zr374   2.464       .  S
O362        C363   1.293       .  A
C363        C421   1.488       .  S
O364       Zr367   2.407   1_565  S
O364        C366   1.274       .  A
O365       Zr373   2.481       .  S
O365        C366   1.296       .  A
C366        C441   1.490       .  S
Zr367       O368   2.436       .  S
Zr367       O369   2.435       .  S
Zr367       O375   2.367       .  S
Zr367       O376   2.373   1_545  S
Zr367       O379   2.383   1_545  S
Zr367       O377   2.366       .  S
O368        H388   0.989       .  S
O368        H393   0.990   1_545  S
O369        H389   0.990       .  S
Zr370       O371   2.433       .  S
Zr370       O372   2.436       .  S
Zr370       O376   2.371   1_545  S
Zr370       O375   2.374       .  S
Zr370       O380   2.364       .  S
Zr370       O378   2.373   1_545  S
O371        H387   0.990       .  S
O372        H386   0.990       .  S
O372        H396   0.989   1_545  S
Zr373       O376   2.407       .  S
Zr373       O378   2.422       .  S
Zr373       O379   2.432       .  S
Zr374       O375   2.432       .  S
Zr374       O377   2.411       .  S
Zr374       O380   2.412       .  S
O375        H383   0.964       .  S
O378        H382   0.966       .  S
O379        H384   0.964       .  S
C397        C398   1.404       .  A
C397        C402   1.405       .  A
C397        F404   1.358       .  S
C398        C399   1.408       .  A
C399        C400   1.402       .  A
C399        F406   1.358       .  S
C400        C401   1.410       .  A
C400        F405   1.357       .  S
C401        C402   1.416       .  A
C402        F403   1.357       .  S
C407        C408   1.408       .  A
C407        C412   1.396       .  A
C407        F414   1.359       .  S
C408        C409   1.410       .  A
C409        C410   1.408       .  A
C409        F416   1.357       .  S
C410        C411   1.405       .  A
C410        F415   1.357       .  S
C411        C412   1.403       .  A
C412        F413   1.358       .  S
C417        C418   1.402       .  A
C417        C422   1.402       .  A
C417        F424   1.358       .  S
C418        C419   1.410       .  A
C419        C420   1.398       .  A
C419        F426   1.358       .  S
C420        C421   1.406       .  A
C420        F425   1.358       .  S
C421        C422   1.416       .  A
C422        F423   1.358       .  S
C427        C428   1.413       .  A
C427        C432   1.403       .  A
C427        F434   1.358       .  S
C428        C429   1.407       .  A
C429        C430   1.402       .  A
C429        F436   1.358       .  S
C430        C431   1.407       .  A
C430        F435   1.358       .  S
C431        C432   1.403       .  A
C432        F433   1.358       .  S
C437        C438   1.401       .  A
C437        C442   1.402       .  A
C437        F444   1.358       .  S
C438        C439   1.410       .  A
C439        C440   1.402       .  A
C439        F446   1.358       .  S
C440        C441   1.406       .  A
C440        F445   1.357       .  S
C441        C442   1.417       .  A
C442        F443   1.358       .  S
C447        C448   1.408       .  A
C447        C452   1.404       .  A
C447        F454   1.358       .  S
C448        C449   1.404       .  A
C449        C450   1.404       .  A
C449        F456   1.357       .  S
C450        C451   1.411       .  A
C450        F455   1.358       .  S
C451        C452   1.409       .  A
C452        F453   1.358       .  S
C457        C458   1.415       .  A
C457        C462   1.408       .  A
C457        F464   1.357       .  S
C458        C459   1.409       .  A
C459        C460   1.404       .  A
C459        F466   1.358       .  S
C460        C461   1.410       .  A
C460        F465   1.358       .  S
C461        C462   1.404       .  A
C462        F463   1.357       .  S
C467        C468   1.407       .  A
C467        C472   1.404       .  A
C467        F474   1.358       .  S
C468        C469   1.415       .  A
C469        C470   1.401       .  A
C469        F476   1.358       .  S
C470        C471   1.401       .  A
C470        F475   1.358       .  S
C471        C472   1.409       .  A
C472        F473   1.358       .  S
C477        C478   1.415       .  A
C477        C482   1.408       .  A
C477        F484   1.358       .  S
C478        C479   1.407       .  A
C479        C480   1.400       .  A
C479        F486   1.357       .  S
C480        C481   1.409       .  A
C480        F485   1.358       .  S
C481        C482   1.404       .  A
C482        F483   1.358       .  S
C487        C488   1.413       .  A
C487        C492   1.401       .  A
C487        F494   1.357       .  S
C488        C489   1.411       .  A
C489        C490   1.405       .  A
C489        F496   1.358       .  S
C490        C491   1.407       .  A
C490        F495   1.358       .  S
C491        C492   1.401       .  A
C492        F493   1.358       .  S
C497        C498   1.407       .  A
C497        C502   1.401       .  A
C497        F504   1.358       .  S
C498        C499   1.414       .  A
C499        C500   1.397       .  A
C499        F506   1.358       .  S
C500        C501   1.400       .  A
C500        F505   1.358       .  S
C501        C502   1.408       .  A
C502        F503   1.358       .  S
C507        C508   1.412       .  A
C507        C512   1.399       .  A
C507        F514   1.358       .  S
C508        C509   1.407       .  A
C509        C510   1.403       .  A
C509        F516   1.358       .  S
C510        C511   1.406       .  A
C510        F515   1.357       .  S
C511        C512   1.401       .  A
C512        F513   1.358       .  S
C517        C518   1.408       .  A
C517        C522   1.406       .  A
C517        F524   1.358       .  S
C518        C519   1.400       .  A
C519        C520   1.392       .  A
C519        F526   1.358       .  S
C520        C521   1.413       .  A
C520        F525   1.358       .  S
C521        C522   1.410       .  A
C522        F523   1.358       .  S
C527        C528   1.410       .  A
C527        C532   1.405       .  A
C527        F534   1.358       .  S
C528        C529   1.402       .  A
C529        C530   1.403       .  A
C529        F536   1.358       .  S
C530        C531   1.413       .  A
C530        F535   1.358       .  S
C531        C532   1.408       .  A
C532        F533   1.358       .  S
C537        C538   1.408       .  A
C537        C542   1.398       .  A
C537        F544   1.358       .  S
C538        C539   1.401       .  A
C539        C540   1.400       .  A
C539        F546   1.358       .  S
C540        C541   1.415       .  A
C540        F545   1.358       .  S
C541        C542   1.406       .  A
C542        F543   1.358       .  S
C547        C548   1.404       .  A
C547        C552   1.405       .  A
C547        F554   1.357       .  S
C548        C549   1.408       .  A
C549        C550   1.405       .  A
C549        F556   1.358       .  S
C550        C551   1.411       .  A
C550        F555   1.358       .  S
C551        C552   1.412       .  A
C552        F553   1.357       .  S
C557        C558   1.407       .  A
C557        C562   1.400       .  A
C557        F564   1.358       .  S
C558        C559   1.413       .  A
C559        C560   1.395       .  A
C559        F566   1.358       .  S
C560        C561   1.399       .  A
C560        F565   1.358       .  S
C561        C562   1.407       .  A
C562        F563   1.358       .  S
C567        C568   1.401       .  A
C567        C572   1.402       .  A
C567        F574   1.358       .  S
C568        C569   1.409       .  A
C569        C570   1.400       .  A
C569        F576   1.359       .  S
C570        C571   1.403       .  A
C570        F575   1.358       .  S
C571        C572   1.412       .  A
C572        F573   1.358       .  S
C577        C578   1.407       .  A
C577        C582   1.403       .  A
C577        F584   1.357       .  S
C578        C579   1.416       .  A
C579        C580   1.406       .  A
C579        F586   1.358       .  S
C580        C581   1.402       .  A
C580        F585   1.358       .  S
C581        C582   1.410       .  A
C582        F583   1.358       .  S
C587        C588   1.410       .  A
C587        C592   1.398       .  A
C587        F594   1.358       .  S
C588        C589   1.405       .  A
C589        C590   1.400       .  A
C589        F596   1.358       .  S
C590        C591   1.406       .  A
C590        F595   1.358       .  S
C591        C592   1.402       .  A
C592        F593   1.358       .  S
C597        C598   1.414       .  A
C597        C602   1.401       .  A
C597        F604   1.356       .  S
C598        C599   1.410       .  A
C599        C600   1.409       .  A
C599        F606   1.357       .  S
C600        C601   1.412       .  A
C600        F605   1.358       .  S
C601        C602   1.401       .  A
C602        F603   1.358       .  S
C607        C608   1.416       .  A
C607        C612   1.401       .  A
C607        F614   1.358       .  S
C608        C609   1.408       .  A
C609        C610   1.407       .  A
C609        F616   1.357       .  S
C610        C611   1.410       .  A
C610        F615   1.358       .  S
C611        C612   1.400       .  A
C612        F613   1.358       .  S
C617        C618   1.409       .  A
C617        C622   1.404       .  A
C617        F624   1.358       .  S
C618        C619   1.410       .  A
C619        C620   1.400       .  A
C619        F626   1.358       .  S
C620        C621   1.403       .  A
C620        F625   1.358       .  S
C621        C622   1.405       .  A
C622        F623   1.358       .  S
C627        C628   1.407       .  A
C627        C632   1.402       .  A
C627        F634   1.357       .  S
C628        C629   1.416       .  A
C629        C630   1.405       .  A
C629        F636   1.358       .  S
C630        C631   1.402       .  A
C630        F635   1.358       .  S
C631        C632   1.411       .  A
C632        F633   1.358       .  S
