geometry optimzed in LAMMPS
_audit_creation_date              2020-11-30 
_audit_creation_method            'lammps2cif' 
_symmetry_space_group_name_H-M    'P1' 
_symmetry_Int_Tables_number       1 
_symmetry_cell_setting            triclinic 
loop_ 
_symmetry_equiv_pos_as_xyz 
  x,y,z 
_cell_length_a                    48.80307032 
_cell_length_b                    24.812442674514305 
_cell_length_c                    37.243470897210294 
_cell_angle_alpha                 90.43876413402248 
_cell_angle_beta                  90.30822092997592 
_cell_angle_gamma                 89.97171014668623 
loop_ 
_atom_site_label 
_atom_site_type_symbol 
_atom_site_fract_x 
_atom_site_fract_y 
_atom_site_fract_z 
_atom_site_charge 
C1          C  0.35884590  0.74679629  0.98556540     0.80600
N2          N  0.34723245  0.73949180  0.45135194    -0.77700
C3          C  0.33076380  0.69552968  0.45086851     0.83000
N4          N  0.32224159  0.67454850  0.48244235    -0.77700
C5          C  0.32887761  0.68557833  0.01417017     0.83100
N6          N  0.34649672  0.72782320  0.01568790    -0.79400
C7          C  0.11203025  0.83222914  0.98706372     0.80600
N8          N  0.13372182  0.83368751  0.45778603    -0.77700
C9          C  0.15605253  0.80050104  0.45843864     0.83000
N10         N  0.16705810  0.78602533  0.49053589    -0.77700
C11         C  0.14710958  0.79202469  0.02142116     0.83100
N12         N  0.12374998  0.82122559  0.01920518    -0.79400
C13         C  0.31046029  0.27622930  0.98407126     0.80600
N14         N  0.29983986  0.28820244  0.45131605    -0.77700
C15         C  0.27888756  0.32452728  0.45105992     0.83000
N16         N  0.26997475  0.34472759  0.48271739    -0.77700
C17         C  0.28130441  0.33707207  0.01467296     0.83100
N18         N  0.30198425  0.30020726  0.01523468    -0.79400
N19         N  0.47089138  0.97678403  0.00428173    -0.36300
N20         N  0.00674192  0.07196951  0.99471882    -0.56800
N21         N  0.45349163  0.13837344  0.99517087    -0.36300
N22         N  0.42090086  0.04055587  0.99402613    -0.56800
C23         C  0.49552164  0.95551910  0.01322718     0.27300
C24         C  0.45188059  0.93756274  0.00763398     0.27300
C25         C  0.47085081  0.17770506  0.00581769     0.27300
C26         C  0.42807796  0.15983435  0.99473029     0.27300
C27         C  0.02413931  0.03311435  0.98383231     0.35900
C28         C  0.01899691  0.11910216  0.98735554     0.35900
C29         C  0.41003172  0.99075739  0.99058820     0.35900
C30         C  0.40134219  0.07568756  0.98350592     0.35900
C31         C  0.49222024  0.90168078  0.02179882    -0.21500
C32         C  0.46472071  0.89037112  0.01835793    -0.21500
C33         C  0.45646549  0.22525574  0.01125171    -0.21500
C34         C  0.42943550  0.21397249  0.00432117    -0.21500
C35         C  0.04768120  0.05555797  0.96964101    -0.22000
C36         C  0.04445846  0.11039389  0.97204312    -0.22600
C37         C  0.38322350  0.99437601  0.97818743    -0.22600
C38         C  0.37776061  0.04818912  0.97361237    -0.22600
C39         C  0.01994583  0.97800113  0.99002725    -0.18000
C40         C  0.42354292  0.94207605  0.99950107    -0.18000
C41         C  0.40370530  0.13235045  0.98538045    -0.17900
C42         C  0.00804847  0.16966271  0.99631672    -0.17900
H43         H  0.00613488  0.87780607  0.02301433     0.15000
H44         H  0.45531866  0.85154154  0.02289822     0.15000
H45         H  0.46459875  0.26411928  0.01929291     0.15000
H46         H  0.41270713  0.24249644  0.00619458     0.15000
H47         H  0.06549222  0.03460548  0.95939674     0.13200
H48         H  0.05921853  0.14036810  0.96383790     0.13200
H49         H  0.36900421  0.96169817  0.97312651     0.13200
H50         H  0.35852202  0.06518799  0.96454317     0.13200
H51         H  0.46745705  0.01508133  0.99470177     0.26500
H52         H  0.45888535  0.09986066  0.98712423     0.26500
C53         C  0.06910206  0.36611293  0.98463901     0.80600
N54         N  0.07625250  0.39111622  0.01589464    -0.77700
C55         C  0.09082853  0.43745774  0.01585874     0.83000
N56         N  0.10934139  0.43212840  0.48258030    -0.77700
C57         C  0.09960271  0.41084142  0.45140632     0.83100
N58         N  0.08031387  0.37149297  0.45254734    -0.79400
O59         O  0.28174994  0.61906267  0.29563853    -0.74900
O60         O  0.25188691  0.58579723  0.33685943    -0.53900
C61         C  0.27455333  0.60818446  0.32801337     0.78800
O62         O  0.17712173  0.70548479  0.18259095    -0.59500
O63         O  0.19187696  0.64625565  0.13966313    -0.52600
C64         C  0.18101820  0.69078705  0.14996174     0.70800
O65         O  0.17938370  0.69626261  0.30082832    -0.74100
O66         O  0.19641040  0.63279189  0.33879161    -0.54700
C67         C  0.18473788  0.67821291  0.33220030     0.76800
O68         O  0.28063821  0.62465852  0.17412689    -0.59200
O69         O  0.24650088  0.60163488  0.13516787    -0.52400
C70         C  0.27055869  0.61985779  0.14222192     0.73400
Zr71       Zr  0.26393614  0.60626803  0.23481314     2.54700
O72         O  0.28271119  0.69712286  0.23565620    -0.79800
O73         O  0.30927676  0.56526659  0.23271761    -0.93200
Zr74       Zr  0.18782737  0.66630250  0.24016359     2.64700
O75         O  0.20806299  0.75584397  0.24421065    -0.98200
O76         O  0.14135393  0.70182711  0.24198734    -0.80200
O77         O  0.22717783  0.63566202  0.27184853    -0.83600
O78         O  0.22528649  0.64043947  0.20352908    -2.18300
O79         O  0.24278259  0.43328607  0.16921953    -0.67000
O80         O  0.22442251  0.49471474  0.13069548    -0.51600
C81         C  0.23738652  0.45098720  0.13752506     0.71800
O82         O  0.14326726  0.49266994  0.29575772    -0.59900
O83         O  0.17448699  0.52404188  0.33675123    -0.51900
C84         C  0.15192647  0.50077044  0.32807598     0.73600
O85         O  0.13816163  0.51175887  0.17385118    -0.71300
O86         O  0.16908793  0.54272616  0.13331084    -0.50000
C87         C  0.14572519  0.52281210  0.14153119     0.75000
O88         O  0.24502075  0.42007122  0.29076541    -0.66600
O89         O  0.22989654  0.47959609  0.33319354    -0.53800
C90         C  0.24132000  0.43510299  0.32362196     0.73300
Zr91       Zr  0.23278521  0.45685804  0.23156103     2.77500
O92         O  0.20919321  0.37039070  0.22853112    -0.97400
O93         O  0.27655392  0.40990960  0.22966784    -0.78200
Zr94       Zr  0.15697223  0.51785769  0.23520433     2.70100
O95         O  0.13509008  0.43018349  0.22858806    -0.79400
O96         O  0.11249374  0.56132347  0.24191451    -0.98500
Zr97       Zr  0.21228779  0.55768865  0.30265480     2.21500
Zr98       Zr  0.20868738  0.56684180  0.16869304     2.11100
O99         O  0.19389053  0.48811196  0.19899916    -2.47200
O100        O  0.19537824  0.48401425  0.26780331    -0.79200
O101        O  0.24800040  0.53323406  0.19900250    -0.71400
O102        O  0.17273789  0.58985363  0.27208343    -2.32400
O103        O  0.24995569  0.52910277  0.26710276    -2.28600
O104        O  0.17086088  0.59527786  0.20347778    -0.73200
H105        H  0.23069065  0.66998416  0.18883435     0.78800
H106        H  0.15856643  0.59995168  0.28868663     0.79900
H107        H  0.18768642  0.46104549  0.18207558     0.82100
H108        H  0.26489152  0.51677315  0.28175753     0.79700
H109        H  0.12999202  0.67114554  0.24991052     0.42800
H110        H  0.09904187  0.53233656  0.23690471     0.41700
H111        H  0.14541957  0.40637293  0.24502768     0.41400
H112        H  0.19133556  0.37806013  0.21694162     0.39300
H113        H  0.28954615  0.43680822  0.22013688     0.42500
H114        H  0.30802756  0.53827822  0.21305501     0.37300
H115        H  0.30214649  0.69245461  0.22878848     0.43400
H116        H  0.19281939  0.77949707  0.25198426     0.39800
H117        H  0.21942949  0.34928353  0.21034926     0.44700
H118        H  0.31061712  0.54352865  0.25483832     0.43400
H119        H  0.22046292  0.75428485  0.26531354     0.43600
H120        H  0.11067798  0.56873430  0.26795320     0.43900
C121        C  0.11185119  0.46036165  0.11414945    -0.11900
C122        C  0.12717811  0.50782382  0.11140131     0.05100
C123        C  0.12701125  0.53560176  0.07841243    -0.07200
C124        C  0.11365412  0.51324588  0.04848997    -0.08000
C125        C  0.10049285  0.46295013  0.05016884    -0.02500
C126        C  0.09873236  0.43750596  0.08415312     0.04300
N127        N  0.08547685  0.38673965  0.08875175     0.66800
H128        H  0.11154786  0.43858837  0.13927273     0.15700
H129        H  0.11450731  0.53493289  0.02338138     0.15400
N130        N  0.14033192  0.58648577  0.07452791     0.74500
O131        O  0.09994547  0.34457524  0.08869390    -0.38900
O132        O  0.06240943  0.38574106  0.10388813    -0.38900
O133        O  0.16330877  0.58813339  0.05920369    -0.39600
O134        O  0.12605169  0.62883112  0.07605910    -0.39600
C135        C  0.12502357  0.42771463  0.35541583    -0.11900
C136        C  0.13525846  0.48034579  0.35758374     0.05100
C137        C  0.13128461  0.51087256  0.38910999    -0.07200
C138        C  0.11829930  0.48762674  0.41828053    -0.08000
C139        C  0.10958466  0.43367367  0.41732430    -0.02500
C140        C  0.11247474  0.40382181  0.38502802     0.04300
N141        N  0.10456077  0.34860110  0.38208713     0.66800
H142        H  0.12813065  0.40391265  0.33123768     0.15700
H143        H  0.11565712  0.51197422  0.44230753     0.15400
N144        N  0.14029194  0.56555776  0.39210140     0.74500
O145        O  0.08347949  0.33724844  0.36383299    -0.38900
O146        O  0.12271502  0.31285510  0.38598202    -0.38900
O147        O  0.12295014  0.60294220  0.38873525    -0.39600
O148        O  0.16281800  0.57554522  0.40755707    -0.39600
C149        C  0.01646498  0.25026863  0.46196612    -0.11900
C150        C  0.02549123  0.21718689  0.99274824     0.05100
C151        C  0.04399179  0.23257788  0.01977997    -0.07200
C152        C  0.05840889  0.28088327  0.01633958    -0.08000
C153        C  0.05432078  0.31423510  0.98622963    -0.02500
C154        C  0.03263703  0.29627577  0.45929578     0.04300
N155        N  0.02834700  0.33058018  0.42920970     0.66800
H156        H  0.00248105  0.23967560  0.44032327     0.15700
H157        H  0.07263039  0.29246269  0.03739536     0.15400
N158        N  0.51598003  0.22313580  0.07608772     0.74500
O159        O  0.03648005  0.31479383  0.39883384    -0.38900
O160        O  0.00903877  0.36436305  0.43063541    -0.38900
O161        O  0.52774005  0.18173341  0.08819598    -0.39600
O162        O  0.51778866  0.19788175  0.58785618    -0.39600
C163        C  0.36199612  0.16913433  0.01314294    -0.11900
C164        C  0.37841620  0.16494216  0.98281881     0.05100
C165        C  0.37723352  0.20248373  0.45610413    -0.07200
C166        C  0.35347214  0.23420512  0.45485307    -0.08000
C167        C  0.33345846  0.23666572  0.98393870    -0.02500
C168        C  0.33971423  0.20429236  0.01406158     0.04300
N169        N  0.32380595  0.20574688  0.04600909     0.66800
H170        H  0.36689278  0.14551310  0.03670206     0.15700
H171        H  0.35006156  0.26000228  0.43191798     0.15400
N172        N  0.39585185  0.20209532  0.42660687     0.74500
O173        O  0.30421763  0.17292499  0.04884259    -0.38900
O174        O  0.32698396  0.20290791  0.57220721    -0.38900
O175        O  0.38664977  0.15027535  0.90104340    -0.39600
O176        O  0.41681182  0.23180468  0.42799636    -0.39600
C177        C  0.27369256  0.39563163  0.10960342    -0.11900
C178        C  0.24778719  0.41962721  0.10683923     0.05100
C179        C  0.23303132  0.41490132  0.07442049    -0.07200
C180        C  0.24427126  0.38626527  0.04581150    -0.08000
C181        C  0.27065422  0.36355925  0.04773626    -0.02500
C182        C  0.28545600  0.36850748  0.08039944     0.04300
N183        N  0.31263738  0.34831305  0.08461361     0.66800
H184        H  0.28544520  0.39975641  0.13426426     0.15700
H185        H  0.23195051  0.38195408  0.02177547     0.15400
N186        N  0.20637365  0.43791009  0.07005231     0.74500
O187        O  0.33241538  0.37886349  0.07704902    -0.38900
O188        O  0.31653996  0.31125823  0.10705851    -0.38900
O189        O  0.18563860  0.40800877  0.07325132    -0.39600
O190        O  0.20400104  0.48169956  0.05329739    -0.39600
C191        C  0.28361104  0.34514041  0.38569281    -0.11900
C192        C  0.26737623  0.34600544  0.41679015     0.05100
C193        C  0.24140522  0.37173291  0.41500497    -0.07200
C194        C  0.23319592  0.39772695  0.38364041    -0.08000
C195        C  0.25003869  0.39950355  0.35339005    -0.02500
C196        C  0.27526545  0.37162174  0.35421851     0.04300
N197        N  0.29361911  0.37290871  0.32453716     0.66800
H198        H  0.30359379  0.32610963  0.38624435     0.15700
H199        H  0.21347162  0.41791415  0.38327960     0.15400
N200        N  0.22287071  0.37269376  0.44457423     0.74500
O201        O  0.31261517  0.40739200  0.32454398    -0.38900
O202        O  0.29573508  0.33161218  0.30477015    -0.38900
O203        O  0.21854852  0.41708182  0.46034154    -0.39600
O204        O  0.20484129  0.33638100  0.44629581    -0.39600
C205        C  0.08722174  0.90992096  0.01201959    -0.11900
C206        C  0.08821848  0.86889895  0.98593903     0.05100
C207        C  0.07772009  0.88795847  0.46255264    -0.07200
C208        C  0.05377419  0.91820634  0.46752420    -0.08000
C209        C  0.04382764  0.94133916  0.98846799    -0.02500
C210        C  0.06533102  0.94572281  0.01362054     0.04300
N211        N  0.06484973  0.98512714  0.04178045     0.66800
H212        H  0.10356665  0.91425133  0.03165229     0.15700
H213        H  0.03807972  0.91785259  0.44681266     0.15400
N214        N  0.08013736  0.85654375  0.43044771     0.74500
O215        O  0.05448571  0.97271173  0.07155230    -0.38900
O216        O  0.08097602  0.02478603  0.04035894    -0.38900
O217        O  0.06661375  0.81335431  0.42773203    -0.39600
O218        O  0.08792897  0.87951185  0.40216769    -0.39600
C219        C  0.19265746  0.73845694  0.09549296    -0.11900
C220        C  0.17310565  0.72731273  0.12150294     0.05100
C221        C  0.14598264  0.74488846  0.11700088    -0.07200
C222        C  0.13834399  0.76905947  0.08476547    -0.08000
C223        C  0.15749017  0.77616966  0.05704997    -0.02500
C224        C  0.18526627  0.76308594  0.06347241     0.04300
N225        N  0.20641004  0.77421007  0.03827886     0.66800
H226        H  0.21379301  0.72630894  0.09967199     0.15700
H227        H  0.11694558  0.77908452  0.08066936     0.15400
N228        N  0.12553644  0.73433263  0.14335853     0.74500
O229        O  0.21484002  0.82207083  0.03565529    -0.38900
O230        O  0.22230735  0.73633473  0.02938520    -0.38900
O231        O  0.11676505  0.77266860  0.16255588    -0.39600
O232        O  0.11198373  0.69109926  0.14152065    -0.39600
C233        C  0.14870943  0.77676705  0.39430171    -0.11900
C234        C  0.16557878  0.77416447  0.42490390     0.05100
C235        C  0.18970727  0.74245363  0.42327646    -0.07200
C236        C  0.19512169  0.71142028  0.39287169    -0.08000
C237        C  0.17772648  0.71256191  0.36305045    -0.02500
C238        C  0.15473328  0.74708689  0.36338262     0.04300
N239        N  0.13690126  0.75198564  0.33305131     0.66800
H240        H  0.13026147  0.80102474  0.39437287     0.15700
H241        H  0.21354018  0.68693240  0.39239093     0.15400
N242        N  0.20946537  0.74153690  0.45158338     0.74500
O243        O  0.11465034  0.72611092  0.33260520    -0.38900
O244        O  0.13934568  0.79255616  0.31309439    -0.38900
O245        O  0.21342792  0.69765179  0.46771233    -0.39600
O246        O  0.22842987  0.77610765  0.45134881    -0.39600
C247        C  0.39376392  0.89005057  0.51059058    -0.11900
C248        C  0.40752478  0.89150697  0.99684160     0.05100
C249        C  0.39377947  0.86947715  0.02634066    -0.07200
C250        C  0.37854512  0.82219141  0.02194084    -0.08000
C251        C  0.37674662  0.79548954  0.98845191    -0.02500
C252        C  0.37605408  0.84610395  0.51238586     0.04300
N253        N  0.36016306  0.84027412  0.54417198     0.66800
H254        H  0.39542983  0.91737159  0.53336365     0.15700
H255        H  0.36795489  0.80671146  0.04516754     0.15400
N256        N  0.39541374  0.89391428  0.06110439     0.74500
O257        O  0.37154800  0.82098323  0.57172494    -0.38900
O258        O  0.41045283  0.76039043  0.91698128    -0.38900
O259        O  0.44613783  0.86205722  0.41560868    -0.39600
O260        O  0.41243775  0.87556868  0.08351551    -0.39600
C261        C  0.32337291  0.68537938  0.08076704    -0.11900
C262        C  0.31446851  0.66676957  0.04690417     0.05100
C263        C  0.29162490  0.63149802  0.04531326    -0.07200
C264        C  0.27876641  0.61583717  0.07683170    -0.08000
C265        C  0.28715561  0.63543970  0.11060459    -0.02500
C266        C  0.30992175  0.67055081  0.11237026     0.04300
N267        N  0.31900627  0.69375772  0.14553820     0.66800
H268        H  0.34070250  0.71251340  0.08288574     0.15700
H269        H  0.26142977  0.58871618  0.07443272     0.15400
N270        N  0.27993033  0.61305279  0.01214895     0.74500
O271        O  0.33962268  0.67379932  0.16111742    -0.38900
O272        O  0.31181848  0.74128528  0.15328391    -0.38900
O273        O  0.28370090  0.56467661  0.00269563    -0.39600
O274        O  0.25960114  0.63809956  0.99945145    -0.39600
C275        C  0.31004134  0.61859102  0.41822263    -0.11900
C276        C  0.32081501  0.67101020  0.41679355     0.05100
C277        C  0.31970899  0.69892082  0.38378105    -0.07200
C278        C  0.30599841  0.67575981  0.35441727    -0.08000
C279        C  0.29299639  0.62561252  0.35725379    -0.02500
C280        C  0.29594577  0.59602612  0.38918618     0.04300
N281        N  0.28480388  0.54309234  0.39283121     0.66800
H282        H  0.31181028  0.59512758  0.44250892     0.15700
H283        H  0.30406515  0.69880660  0.32991551     0.15400
N284        N  0.33068559  0.75190744  0.37985278     0.74500
O285        O  0.30008762  0.50301911  0.38685227    -0.38900
O286        O  0.26365328  0.53680708  0.41169009    -0.38900
O287        O  0.35214192  0.75796687  0.36155599    -0.39600
O288        O  0.31517303  0.79192320  0.38490765    -0.39600
C289        C  0.35519289  0.76241304  0.48302870     0.80600
N290        N  0.35310013  0.72290414  0.95331887    -0.77700
C291        C  0.33568379  0.68007219  0.95158773     0.83000
N292        N  0.32382284  0.66211709  0.98206902    -0.77700
C293        C  0.32986063  0.69634317  0.51437420     0.83100
N294        N  0.34635488  0.74068782  0.51446070    -0.79400
C295        C  0.12291835  0.85299557  0.48882502     0.80600
N296        N  0.12388050  0.81333576  0.95667071    -0.77700
C297        C  0.14738967  0.78371207  0.95831194     0.83000
N298        N  0.15881492  0.77301544  0.99087904    -0.77700
C299        C  0.15636186  0.80509294  0.52161321     0.83100
N300        N  0.13431856  0.83806153  0.52044225    -0.79400
C301        C  0.31099673  0.27134955  0.48302955     0.80600
N302        N  0.29816247  0.28994513  0.95247357    -0.77700
C303        C  0.27727135  0.32621981  0.95174000     0.83000
N304        N  0.26929583  0.34952585  0.98284597    -0.77700
C305        C  0.28105635  0.32920151  0.51453461     0.83100
N306        N  0.30161605  0.29239826  0.51453210    -0.79400
N307        N  0.47427868  0.97926853  0.48636198    -0.36300
N308        N  0.00572635  0.07195867  0.49990979    -0.56800
N309        N  0.45702541  0.14025909  0.49468593    -0.36300
N310        N  0.42462368  0.04497870  0.48428754    -0.56800
C311        C  0.49786590  0.95744513  0.49884580     0.27300
C312        C  0.45456397  0.94143077  0.48948070     0.27300
C313        C  0.47504403  0.17641753  0.50790662     0.27300
C314        C  0.43173447  0.16044613  0.50032805     0.27300
C315        C  0.02584023  0.03596231  0.49357094     0.35900
C316        C  0.01534899  0.11996614  0.48922551     0.35900
C317        C  0.41412110  0.99746206  0.47340714     0.35900
C318        C  0.40507820  0.08215831  0.47806162     0.35900
C319        C  0.49319637  0.90478821  0.50931108    -0.21500
C320        C  0.46584382  0.89462637  0.50334200    -0.21500
C321        C  0.46114210  0.22041795  0.52207874    -0.21500
C322        C  0.43366284  0.21028321  0.51726559    -0.21500
C323        C  0.04852577  0.06132630  0.47915814    -0.22000
C324        C  0.04185876  0.11476871  0.47641530    -0.22600
C325        C  0.38763959  0.00428232  0.46048437    -0.22600
C326        C  0.38189865  0.05820883  0.46341752    -0.22600
C327        C  0.02444959  0.98098748  0.50229437    -0.18000
C328        C  0.42685358  0.94747611  0.47920568    -0.18000
C329        C  0.40721901  0.13663469  0.48813985    -0.17900
C330        C  0.00152228  0.16911144  0.49401369    -0.17900
H331        H  0.01576133  0.87594517  0.53138870     0.15000
H332        H  0.45544377  0.85703677  0.50867447     0.15000
H333        H  0.46992047  0.25647825  0.53395301     0.15000
H334        H  0.41704605  0.23694649  0.52473054     0.15000
H335        H  0.06791766  0.04334323  0.47174226     0.13200
H336        H  0.05511324  0.14632778  0.46662383     0.13200
H337        H  0.37370787  0.97342688  0.45081995     0.13200
H338        H  0.36270581  0.07737737  0.45634160     0.13200
H339        H  0.47197327  0.01695962  0.47479376     0.26500
H340        H  0.46195079  0.10583055  0.48010851     0.26500
C341        C  0.07091010  0.35427851  0.48489469     0.80600
N342        N  0.08102042  0.37634609  0.51582208    -0.77700
C343        C  0.10026444  0.41545962  0.51489192     0.83000
N344        N  0.09845105  0.45842145  0.98377785    -0.77700
C345        C  0.09173260  0.43409507  0.95200209     0.83100
N346        N  0.07703687  0.38748941  0.95269870    -0.79400
O347        O  0.28337845  0.61621871  0.79737888    -0.74900
O348        O  0.25328341  0.58220742  0.83796732    -0.53900
C349        C  0.27627272  0.60348750  0.82946513     0.78800
O350        O  0.17630691  0.69686030  0.67846387    -0.59500
O351        O  0.19575976  0.64082007  0.63704169    -0.52600
C352        C  0.18238371  0.68306407  0.64619928     0.70800
O353        O  0.18049227  0.69564561  0.79806519    -0.74100
O354        O  0.19755416  0.63305600  0.83670591    -0.54700
C355        C  0.18553870  0.67795898  0.82970320     0.76800
O356        O  0.28450156  0.63075091  0.67631465    -0.59200
O357        O  0.25282100  0.60073397  0.63576319    -0.52400
C358        C  0.27581318  0.62320411  0.64391726     0.73400
Zr359      Zr  0.26617227  0.60935366  0.73588451     2.54700
O360        O  0.27889046  0.70402976  0.74069656    -0.79800
O361        O  0.31334727  0.57764818  0.73150717    -0.93200
Zr362      Zr  0.18945971  0.66424414  0.73742256     2.64700
O363        O  0.20910220  0.75449106  0.73572285    -0.98200
O364        O  0.14285730  0.69867029  0.74144355    -0.80200
O365        O  0.22834386  0.63653088  0.77168582    -0.83600
O366        O  0.22818204  0.64124265  0.70216218    -2.18300
O367        O  0.24683495  0.43095125  0.66961466    -0.67000
O368        O  0.23087201  0.49378733  0.63047920    -0.51600
C369        C  0.24203937  0.44843965  0.63770588     0.71800
O370        O  0.14346425  0.49974442  0.79495198    -0.59900
O371        O  0.17481653  0.52890359  0.83642359    -0.51900
C372        C  0.15135392  0.50923174  0.82763416     0.73600
O373        O  0.14546206  0.49842972  0.67151823    -0.71300
O374        O  0.17640522  0.53282519  0.63224757    -0.50000
C375        C  0.15383635  0.50900812  0.63948019     0.75000
O376        O  0.24643630  0.41871936  0.79074565    -0.66600
O377        O  0.22958967  0.47728819  0.83257580    -0.53800
C378        C  0.24110551  0.43271380  0.82332472     0.73300
Zr379      Zr  0.23827971  0.45863466  0.73169026     2.77500
O380        O  0.21875472  0.36880835  0.72489673    -0.97400
O381        O  0.28544327  0.42611554  0.73271220    -0.78200
Zr382      Zr  0.16118753  0.51337709  0.73362130     2.70100
O383        O  0.14250386  0.42247130  0.73375094    -0.79400
O384        O  0.11584028  0.55420112  0.73099172    -0.98500
Zr385      Zr  0.21409375  0.55722485  0.80215586     2.21500
Zr386      Zr  0.21405905  0.56494103  0.66809771     2.11100
O387        O  0.19933564  0.48603505  0.69839353    -2.47200
O388        O  0.19954496  0.48173006  0.76722573    -0.79200
O389        O  0.24838236  0.53818360  0.70473693    -0.71400
O390        O  0.17520437  0.58739261  0.76951933    -2.32400
O391        O  0.25333336  0.53124751  0.76828850    -2.28600
O392        O  0.17470960  0.59084277  0.70103653    -0.73200
H393        H  0.23335297  0.67087478  0.68725469     0.78800
H394        H  0.16041249  0.59795010  0.78543514     0.79900
H395        H  0.19403727  0.45753671  0.68167482     0.82100
H396        H  0.26814387  0.51894296  0.78330595     0.79700
H397        H  0.14491677  0.73835971  0.74119294     0.42800
H398        H  0.11454316  0.57618146  0.75322015     0.41700
H399        H  0.15870100  0.39881254  0.73088868     0.41400
H400        H  0.23473373  0.34511378  0.72046015     0.39300
H401        H  0.29072536  0.42121263  0.70728366     0.42500
H402        H  0.31165788  0.53921576  0.72451366     0.37300
H403        H  0.29638366  0.70407827  0.75428459     0.43400
H404        H  0.19558843  0.77623839  0.72219003     0.39800
H405        H  0.21243595  0.35901104  0.74920039     0.44700
H406        H  0.32044668  0.57686534  0.75644484     0.43400
H407        H  0.20790058  0.76830291  0.76066915     0.43600
H408        H  0.11708963  0.58102921  0.71151564     0.43900
C409        C  0.12092956  0.44367527  0.61253391    -0.11900
C410        C  0.13727758  0.48970091  0.60853608     0.05100
C411        C  0.13939211  0.51315279  0.57418172    -0.07200
C412        C  0.12695233  0.48825328  0.54463619    -0.08000
C413        C  0.11154644  0.44075853  0.54816705    -0.02500
C414        C  0.10786950  0.41941040  0.58299119     0.04300
N415        N  0.09142990  0.37284124  0.58919602     0.66800
H416        H  0.11885279  0.42523004  0.63866355     0.15700
H417        H  0.12927369  0.50702715  0.51865759     0.15400
N418        N  0.15285984  0.56365202  0.56884461     0.74500
O419        O  0.10303883  0.32772539  0.59271461    -0.38900
O420        O  0.06758444  0.37917066  0.60148020    -0.38900
O421        O  0.17563518  0.56445275  0.55303600    -0.39600
O422        O  0.13874535  0.60622710  0.56978487    -0.39600
C423        C  0.11663818  0.44840145  0.85469827    -0.11900
C424        C  0.13264150  0.49502666  0.85748035     0.05100
C425        C  0.13157118  0.52540253  0.88968674    -0.07200
C426        C  0.11729458  0.50562717  0.91931935    -0.08000
C427        C  0.10300555  0.45639933  0.91773479    -0.02500
C428        C  0.10155806  0.42944088  0.88400974     0.04300
N429        N  0.08413214  0.38424024  0.87802390     0.66800
H430        H  0.11621014  0.42566285  0.82973199     0.15700
H431        H  0.11766357  0.52928849  0.94388512     0.15400
N432        N  0.14365572  0.57772285  0.89238239     0.74500
O433        O  0.06155642  0.39234904  0.86228310    -0.38900
O434        O  0.09470086  0.33785409  0.87647320    -0.38900
O435        O  0.12859082  0.61848178  0.88777644    -0.39600
O436        O  0.16602335  0.58325537  0.90913697    -0.39600
C437        C  0.02175202  0.24908786  0.96259522    -0.11900
C438        C  0.01787247  0.21836350  0.49251847     0.05100
C439        C  0.03490455  0.23280126  0.52137449    -0.07200
C440        C  0.05187483  0.27748922  0.51836933    -0.08000
C441        C  0.05136742  0.30925165  0.48719945    -0.02500
C442        C  0.03570907  0.29751645  0.95917396     0.04300
N443        N  0.02941458  0.32977656  0.92878536     0.66800
H444        H  0.00710205  0.23705335  0.94204967     0.15700
H445        H  0.06557727  0.28700769  0.54048084     0.15400
N446        N  0.53749302  0.19889998  0.56606840     0.74500
O447        O  0.03760991  0.31338504  0.89858415    -0.38900
O448        O  0.00829255  0.35908140  0.92999902    -0.38900
O449        O  0.55497055  0.16142822  0.56651042    -0.39600
O450        O  0.49274324  0.23615077  0.08806510    -0.39600
C451        C  0.36356666  0.16820013  0.51397688    -0.11900
C452        C  0.38243503  0.17033487  0.48617542     0.05100
C453        C  0.37229613  0.19573162  0.95235705    -0.07200
C454        C  0.34987852  0.23124916  0.95297193    -0.08000
C455        C  0.33456043  0.23347943  0.48332896    -0.02500
C456        C  0.33955339  0.19860154  0.51263112     0.04300
N457        N  0.32002248  0.19102233  0.54049009     0.66800
H458        H  0.36728453  0.14182556  0.53656722     0.15700
H459        H  0.34565805  0.25533535  0.92943529     0.15400
N460        N  0.38894533  0.19137074  0.92100166     0.74500
O461        O  0.30138285  0.15645689  0.53567769    -0.38900
O462        O  0.33501647  0.22355419  0.07426612    -0.38900
O463        O  0.39542173  0.16277276  0.40491356    -0.39600
O464        O  0.40988692  0.22083259  0.91825396    -0.39600
C465        C  0.27416092  0.38290200  0.61077108    -0.11900
C466        C  0.25052163  0.41432644  0.60725085     0.05100
C467        C  0.23617852  0.41365709  0.57432948    -0.07200
C468        C  0.24602746  0.38319718  0.54575678    -0.08000
C469        C  0.27071267  0.35446674  0.54812912    -0.02500
C470        C  0.28461665  0.35366936  0.58164487     0.04300
N471        N  0.30955889  0.32492376  0.58710165     0.66800
H472        H  0.28541471  0.38284312  0.63595066     0.15700
H473        H  0.23423381  0.38326169  0.52114350     0.15400
N474        N  0.21196164  0.44467917  0.56865050     0.74500
O475        O  0.33185673  0.34891649  0.58119059    -0.38900
O476        O  0.30946067  0.28697257  0.60944545    -0.38900
O477        O  0.18901098  0.42153641  0.57067436    -0.39600
O478        O  0.21389838  0.48691682  0.55022697    -0.39600
C479        C  0.28066684  0.33948115  0.88568108    -0.11900
C480        C  0.26512463  0.34454487  0.91717959     0.05100
C481        C  0.23961059  0.37186179  0.91525938    -0.07200
C482        C  0.23167623  0.39695707  0.88348414    -0.08000
C483        C  0.24841134  0.39607867  0.85307516    -0.02500
C484        C  0.27260629  0.36485238  0.85380380     0.04300
N485        N  0.29039708  0.36164947  0.82357519     0.66800
H486        H  0.30011136  0.31839827  0.88619075     0.15700
H487        H  0.21249073  0.41904678  0.88305589     0.15400
N488        N  0.22144342  0.37573527  0.94513425     0.74500
O489        O  0.31060042  0.39324938  0.82208798    -0.38900
O490        O  0.29072936  0.31882228  0.80509305    -0.38900
O491        O  0.21866940  0.42090030  0.96052035    -0.39600
O492        O  0.20231678  0.34175301  0.94749385    -0.39600
C493        C  0.09426154  0.91993807  0.52050812    -0.11900
C494        C  0.09822968  0.88793818  0.48964108     0.05100
C495        C  0.06658623  0.86438091  0.96063835    -0.07200
C496        C  0.04468396  0.90085998  0.96206868    -0.08000
C497        C  0.04980660  0.94865264  0.49883730    -0.02500
C498        C  0.07043223  0.95001687  0.52531317     0.04300
N499        N  0.06739541  0.98089392  0.55756890     0.66800
H500        H  0.10968864  0.92133956  0.54153597     0.15700
H501        H  0.02798428  0.89700497  0.94291180     0.15400
N502        N  0.06540996  0.82131414  0.93500691     0.74500
O503        O  0.05910680  0.95756761  0.58546660    -0.38900
O504        O  0.08028710  0.02475371  0.56079779    -0.38900
O505        O  0.05036313  0.78125601  0.94155684    -0.39600
O506        O  0.07185767  0.83065010  0.90288867    -0.39600
C507        C  0.19656050  0.73344723  0.59379239    -0.11900
C508        C  0.17544152  0.71946708  0.61712514     0.05100
C509        C  0.14873639  0.73847282  0.61100918    -0.07200
C510        C  0.14341149  0.76909893  0.58052782    -0.08000
C511        C  0.16437656  0.78129153  0.55611079    -0.02500
C512        C  0.19143174  0.76465344  0.56364304     0.04300
N513        N  0.21418145  0.78083126  0.54229949     0.66800
H514        H  0.21735807  0.72016434  0.59918588     0.15700
H515        H  0.12243303  0.78098617  0.57506888     0.15400
N516        N  0.12650543  0.72392576  0.63377129     0.74500
O517        O  0.22380420  0.82752371  0.54712080    -0.38900
O518        O  0.22969495  0.74486608  0.52956764    -0.38900
O519        O  0.11765929  0.75808529  0.65614308    -0.39600
O520        O  0.11139110  0.68478050  0.62478379    -0.39600
C521        C  0.14495072  0.76854043  0.89239244    -0.11900
C522        C  0.15933429  0.76128731  0.92479527     0.05100
C523        C  0.18393791  0.73102924  0.92407246    -0.07200
C524        C  0.19233282  0.70620552  0.89239389    -0.08000
C525        C  0.17707034  0.71085524  0.86074855    -0.02500
C526        C  0.15359037  0.74406272  0.86054671     0.04300
N527        N  0.13741268  0.75161729  0.82893397     0.66800
H528        H  0.12632299  0.79223626  0.89163326     0.15700
H529        H  0.21097888  0.68239605  0.89279103     0.15400
N530        N  0.20112291  0.72489639  0.95476111     0.74500
O531        O  0.11605477  0.72361747  0.82462995    -0.38900
O532        O  0.13958703  0.79538394  0.81215181    -0.38900
O533        O  0.20091837  0.68025253  0.97078226    -0.39600
O534        O  0.22219035  0.75421867  0.95714511    -0.39600
C535        C  0.40632217  0.86514315  0.96370079    -0.11900
C536        C  0.40902982  0.89968446  0.47978648     0.05100
C537        C  0.40652561  0.86547338  0.44990021    -0.07200
C538        C  0.38893360  0.82099000  0.45145859    -0.08000
C539        C  0.37355906  0.81030129  0.48268629    -0.02500
C540        C  0.39138641  0.81750789  0.95917020     0.04300
N541        N  0.39150025  0.79318296  0.92441500     0.66800
H542        H  0.41717950  0.88180439  0.94101123     0.15700
H543        H  0.38741074  0.79473659  0.42816275     0.15400
N544        N  0.42139262  0.87641367  0.41779083     0.74500
O545        O  0.38021244  0.81857639  0.89912649    -0.38900
O546        O  0.33921635  0.86954757  0.54805175    -0.38900
O547        O  0.37536163  0.92124673  0.07233333    -0.39600
O548        O  0.41225461  0.91114816  0.39623009    -0.39600
C549        C  0.32152953  0.70393693  0.58056869    -0.11900
C550        C  0.31867135  0.67402985  0.54851981     0.05100
C551        C  0.30391746  0.62473404  0.54979574    -0.07200
C552        C  0.29128686  0.60891948  0.58157602    -0.08000
C553        C  0.29295726  0.64011626  0.61302522    -0.02500
C554        C  0.30909597  0.68744402  0.61262355     0.04300
N555        N  0.31228054  0.72072713  0.64379249     0.66800
H556        H  0.33286895  0.74141589  0.58073674     0.15700
H557        H  0.27967793  0.57164886  0.58142155     0.15400
N558        N  0.30133167  0.58951293  0.51942719     0.74500
O559        O  0.33402012  0.71662355  0.66206432    -0.38900
O560        O  0.29846104  0.76360129  0.64608736    -0.38900
O561        O  0.31617640  0.54788247  0.51812844    -0.39600
O562        O  0.27929853  0.59016244  0.50153302    -0.39600
C563        C  0.31374180  0.60492634  0.91857091    -0.11900
C564        C  0.32656347  0.65561829  0.91720537     0.05100
C565        C  0.32637851  0.68368904  0.88439548    -0.07200
C566        C  0.31104294  0.66393837  0.85551378    -0.08000
C567        C  0.29562633  0.61670108  0.85852913    -0.02500
C568        C  0.29805737  0.58557254  0.88988592     0.04300
N569        N  0.28485258  0.53446237  0.89328292     0.66800
H570        H  0.31474926  0.58104214  0.94276786     0.15700
H571        H  0.30991323  0.68772064  0.83124453     0.15400
N572        N  0.34022752  0.73361975  0.87997243     0.74500
O573        O  0.29834514  0.49229848  0.88631749    -0.38900
O574        O  0.26385935  0.53095282  0.91276475    -0.38900
O575        O  0.36086579  0.73446775  0.85970875    -0.39600
O576        O  0.32709998  0.77673250  0.88538887    -0.39600
C577        C  0.85384077  0.76787019  0.01165284     0.80600
N578        N  0.85205673  0.73105948  0.48429439    -0.77700
C579        C  0.83322338  0.69102195  0.48270566     0.83000
N580        N  0.82419403  0.66839049  0.51354753    -0.77700
C581        C  0.82990875  0.70279671  0.04500302     0.83100
N582        N  0.84691264  0.74600205  0.04373307    -0.79400
C583        C  0.61971426  0.85205089  0.01158879     0.80600
N584        N  0.63398415  0.83256146  0.48151811    -0.77700
C585        C  0.65700135  0.80192968  0.48342869     0.83000
N586        N  0.66709154  0.78821573  0.51616839    -0.77700
C587        C  0.65250862  0.80477979  0.04607687     0.83100
N588        N  0.63004999  0.83686883  0.04391246    -0.79400
C589        C  0.81514980  0.28600294  0.01026030     0.80600
N590        N  0.80121824  0.29264481  0.48040653    -0.77700
C591        C  0.78045089  0.32932816  0.48040861     0.83000
N592        N  0.77117209  0.34829967  0.51226845    -0.77700
C593        C  0.78488155  0.34212463  0.04253941     0.83100
N594        N  0.80685122  0.30850338  0.04180890    -0.79400
N595        N  0.96985959  0.98141626  0.99570659    -0.36300
N596        N  0.50291063  0.07458190  0.01128443    -0.56800
N597        N  0.95979588  0.14421050  0.99758341    -0.36300
N598        N  0.92332269  0.05406084  0.00380360    -0.56800
C599        C  0.99437040  0.95698376  0.00048561     0.27300
C600        C  0.95051170  0.94798286  0.00869394     0.27300
C601        C  0.98041370  0.17855066  0.00505639     0.27300
C602        C  0.93630616  0.16936854  0.00652185     0.27300
C603        C  0.52379096  0.03898453  0.00935363     0.35900
C604        C  0.51412035  0.12384429  0.00771557     0.35900
C605        C  0.91004782  0.00693053  0.99982997     0.35900
C606        C  0.90482497  0.09278568  0.99662236     0.35900
C607        C  0.99056430  0.90705580  0.01606772    -0.21500
C608        C  0.96285931  0.90144655  0.02139160    -0.21500
C609        C  0.96992504  0.22644127  0.01878268    -0.21500
C610        C  0.94193012  0.22069538  0.01954238    -0.21500
C611        C  0.54843638  0.06583509  0.00500561    -0.22000
C612        C  0.54233538  0.11967576  0.00421573    -0.22600
C613        C  0.88291130  0.01556184  0.99026845    -0.22600
C614        C  0.87954976  0.07030950  0.98838769    -0.22600
C615        C  0.52106566  0.98262180  0.01244317    -0.18000
C616        C  0.92188924  0.95662892  0.00699486    -0.18000
C617        C  0.90998562  0.14802549  0.00090220    -0.17900
C618        C  0.49949475  0.17281082  0.00889504    -0.17900
H619        H  0.50800346  0.87340283  0.02965448     0.15000
H620        H  0.95289178  0.86682586  0.03304571     0.15000
H621        H  0.98122693  0.26225077  0.02654070     0.15000
H622        H  0.92740014  0.25105666  0.02815799     0.15000
H623        H  0.56871799  0.04852166  0.00274296     0.13200
H624        H  0.55701549  0.15200170  0.00123700     0.13200
H625        H  0.86714356  0.98562570  0.98559434     0.13200
H626        H  0.86063188  0.09117315  0.98224907     0.13200
H627        H  0.96643708  0.01744894  0.98241919     0.26500
H628        H  0.96147820  0.10729619  0.98453183     0.26500
C629        C  0.57340853  0.35354245  0.00988264     0.80600
N630        N  0.58342195  0.37366114  0.04168501    -0.77700
C631        C  0.60234739  0.41396907  0.04185341     0.83000
N632        N  0.60406924  0.44883506  0.50824409    -0.77700
C633        C  0.59540903  0.42781524  0.47646510     0.83100
N634        N  0.57715234  0.38659981  0.47656695    -0.79400
O635        O  0.78317339  0.63183668  0.32548078    -0.74900
O636        O  0.75382794  0.59310755  0.36516730    -0.53900
C637        C  0.77609121  0.61760793  0.35726086     0.78800
O638        O  0.67528652  0.70007445  0.20422835    -0.59500
O639        O  0.69549477  0.64481047  0.16290732    -0.52600
C640        C  0.68141443  0.68632847  0.17189612     0.70800
O641        O  0.68195633  0.70230236  0.32450651    -0.74100
O642        O  0.69895603  0.64017329  0.36361758    -0.54700
C643        C  0.68765005  0.68550871  0.35617473     0.76800
O644        O  0.78391135  0.64332439  0.20547457    -0.59200
O645        O  0.75364747  0.60930196  0.16431939    -0.52400
C646        C  0.77601453  0.63358172  0.17313959     0.73400
Zr647      Zr  0.76602736  0.62130666  0.26430004     2.54700
O648        O  0.77889476  0.71594282  0.26845465    -0.79800
O649        O  0.81370091  0.59241942  0.26212882    -0.93200
Zr650      Zr  0.68740551  0.66775508  0.26403648     2.64700
O651        O  0.69962528  0.76270106  0.26042949    -0.98200
O652        O  0.63897571  0.68894048  0.27118295    -0.80200
O653        O  0.72690484  0.64435514  0.29856887    -0.83600
O654        O  0.72714162  0.64805647  0.23011228    -2.18300
O655        O  0.75182264  0.44062487  0.19824658    -0.67000
O656        O  0.73223799  0.49943058  0.15882499    -0.51600
C657        C  0.74551348  0.45648369  0.16640102     0.71800
O658        O  0.64708947  0.49791056  0.32196345    -0.59900
O659        O  0.67690000  0.53210167  0.36372940    -0.51900
C660        C  0.65444425  0.50873437  0.35458005     0.73600
O661        O  0.64822264  0.49745779  0.19882716    -0.71300
O662        O  0.67796794  0.53541869  0.15941199    -0.50000
C663        C  0.65611813  0.50900336  0.16672015     0.75000
O664        O  0.75212331  0.42965509  0.31993006    -0.66600
O665        O  0.73326654  0.48692222  0.36108986    -0.53800
C666        C  0.74625336  0.44363405  0.35242062     0.73300
Zr667      Zr  0.74222390  0.46684208  0.26022334     2.77500
O668        O  0.72454969  0.37548764  0.25426753    -0.97400
O669        O  0.78952217  0.43564154  0.26037867    -0.78200
Zr670      Zr  0.66376977  0.51420736  0.26090138     2.70100
O671        O  0.64920918  0.42041381  0.26066618    -0.79400
O672        O  0.61664272  0.54642383  0.25975335    -0.98500
Zr673      Zr  0.71525428  0.56414803  0.32957576     2.21500
Zr674      Zr  0.71497512  0.57105319  0.19543740     2.11100
O675        O  0.70288578  0.49130507  0.22657166    -2.47200
O676        O  0.70276494  0.48723557  0.29495507    -0.79200
O677        O  0.75482509  0.54528779  0.22792849    -0.71400
O678        O  0.67542949  0.58999132  0.29686526    -2.32400
O679        O  0.75496934  0.54189321  0.29608373    -2.28600
O680        O  0.67483191  0.59275982  0.22801316    -0.73200
H681        H  0.73159548  0.67802007  0.21523312     0.78800
H682        H  0.66062634  0.59915337  0.31270125     0.79900
H683        H  0.69831239  0.46245852  0.21007105     0.82100
H684        H  0.76995128  0.53153070  0.31131297     0.79700
H685        H  0.63252826  0.69979614  0.24705838     0.42800
H686        H  0.61519178  0.57060281  0.28093080     0.41700
H687        H  0.66333619  0.40130830  0.24644632     0.41400
H688        H  0.74111265  0.35251440  0.25294134     0.39300
H689        H  0.80055833  0.46904640  0.25924288     0.42500
H690        H  0.81590845  0.56765251  0.28266019     0.37300
H691        H  0.76136016  0.73575926  0.26634665     0.43400
H692        H  0.68271258  0.78216437  0.26734308     0.39800
H693        H  0.71648919  0.36744019  0.27796468     0.44700
H694        H  0.82432503  0.62488589  0.26908196     0.43400
H695        H  0.71241346  0.76888331  0.28076791     0.43600
H696        H  0.61582744  0.57098635  0.23894236     0.43900
C697        C  0.62531687  0.43952269  0.13940446    -0.11900
C698        C  0.63972449  0.48821655  0.13585296     0.05100
C699        C  0.63987535  0.51355252  0.10198616    -0.07200
C700        C  0.62674016  0.48911726  0.07272643    -0.08000
C701        C  0.61346356  0.43896059  0.07558642    -0.02500
C702        C  0.61240633  0.41461888  0.10981004     0.04300
N703        N  0.59969001  0.36349936  0.11500950     0.66800
H704        H  0.62506927  0.41918106  0.16504989     0.15700
H705        H  0.62740468  0.50982216  0.04723949     0.15400
N706        N  0.65300147  0.56439520  0.09652499     0.74500
O707        O  0.61455296  0.32189927  0.11596098    -0.38900
O708        O  0.57622912  0.36200734  0.12903882    -0.38900
O709        O  0.67674371  0.56527291  0.08329889    -0.39600
O710        O  0.63837304  0.60616220  0.09439755    -0.39600
C711        C  0.62487217  0.43969829  0.38201639    -0.11900
C712        C  0.63624726  0.49139440  0.38376422     0.05100
C713        C  0.63150332  0.52374205  0.41440716    -0.07200
C714        C  0.61700088  0.50268945  0.44333576    -0.08000
C715        C  0.60705010  0.44950695  0.44273689    -0.02500
C716        C  0.61046762  0.41837285  0.41104360     0.04300
N717        N  0.60091262  0.36419413  0.40806920     0.66800
H718        H  0.62832693  0.41449894  0.35856035     0.15700
H719        H  0.61393049  0.52812621  0.46676509     0.15400
N720        N  0.64068568  0.57839673  0.41640006     0.74500
O721        O  0.58143983  0.35439610  0.38660556    -0.38900
O722        O  0.61711233  0.32645643  0.41608472    -0.38900
O723        O  0.62423138  0.61555548  0.40805954    -0.39600
O724        O  0.66143959  0.58973217  0.43534319    -0.39600
C725        C  0.51670861  0.25986650  0.47877124    -0.11900
C726        C  0.51558428  0.22269030  0.01027283     0.05100
C727        C  0.52483687  0.24504740  0.04276610    -0.07200
C728        C  0.54313882  0.28854786  0.04234903    -0.08000
C729        C  0.55253336  0.30967658  0.00953141    -0.02500
C730        C  0.53104906  0.30831707  0.47965338     0.04300
N731        N  0.52533950  0.34665783  0.45223696     0.66800
H732        H  0.50289198  0.25138499  0.45653602     0.15700
H733        H  0.55039367  0.30482891  0.06772217     0.15400
N734        N  0.04726562  0.20061171  0.05130743     0.74500
O735        O  0.53414571  0.33741743  0.42104536    -0.38900
O736        O  0.50464445  0.37668787  0.45580800    -0.38900
O737        O  0.06280205  0.15996030  0.05048008    -0.39600
O738        O  0.01509091  0.21051750  0.57591305    -0.39600
C739        C  0.87432255  0.19308366  0.03610246    -0.11900
C740        C  0.88637819  0.18441128  0.00291656     0.05100
C741        C  0.86772848  0.18028935  0.47558288    -0.07200
C742        C  0.84547529  0.21607968  0.47745755    -0.08000
C743        C  0.83978031  0.25068104  0.00860506    -0.02500
C744        C  0.85162995  0.22663468  0.03949030     0.04300
N745        N  0.84244076  0.23778337  0.07496816     0.66800
H746        H  0.88301423  0.17440265  0.05981438     0.15700
H747        H  0.83655459  0.23029028  0.45258158     0.15400
N748        N  0.87820304  0.16349275  0.44151826     0.74500
O749        O  0.82598379  0.20526437  0.08928083    -0.38900
O750        O  0.85695843  0.26065322  0.59471688    -0.38900
O751        O  0.88566580  0.15995818  0.92060469    -0.39600
O752        O  0.89883971  0.18724201  0.42889748    -0.39600
C753        C  0.78206489  0.40700256  0.13554168    -0.11900
C754        C  0.75479700  0.42369019  0.13616376     0.05100
C755        C  0.73733006  0.41070506  0.10724099    -0.07200
C756        C  0.74765643  0.38285711  0.07774735    -0.08000
C757        C  0.77532368  0.36764805  0.07615481    -0.02500
C758        C  0.79254991  0.37923641  0.10593550     0.04300
N759        N  0.82062731  0.36370072  0.10721565     0.66800
H760        H  0.79559840  0.41692856  0.15782169     0.15700
H761        H  0.73372632  0.37299950  0.05593345     0.15400
N762        N  0.70889206  0.42412313  0.10764786     0.74500
O763        O  0.83832116  0.39549868  0.09479330    -0.38900
O764        O  0.82777776  0.33125540  0.13143706    -0.38900
O765        O  0.69184977  0.38850348  0.11659089    -0.39600
O766        O  0.70073675  0.46346014  0.08922516    -0.39600
C767        C  0.78639909  0.35105996  0.41542714    -0.11900
C768        C  0.76973132  0.35234162  0.44613056     0.05100
C769        C  0.74416979  0.37939373  0.44387669    -0.07200
C770        C  0.73688488  0.40668039  0.41255571    -0.08000
C771        C  0.75422334  0.40804064  0.38268518    -0.02500
C772        C  0.77894721  0.37841618  0.38393644     0.04300
N773        N  0.79763686  0.37823611  0.35457790     0.66800
H774        H  0.80603109  0.33068550  0.41624577     0.15700
H775        H  0.71740985  0.42773378  0.41184658     0.15400
N776        N  0.72498453  0.37955994  0.47273463     0.74500
O777        O  0.81726386  0.41132153  0.35486270    -0.38900
O778        O  0.79923167  0.33667093  0.33496995    -0.38900
O779        O  0.72168408  0.42248539  0.49059934    -0.39600
O780        O  0.70599931  0.34504156  0.47233309    -0.39600
C781        C  0.58764950  0.91568817  0.04136654    -0.11900
C782        C  0.59477363  0.88660992  0.01021909     0.05100
C783        C  0.57787844  0.87948934  0.47768585    -0.07200
C784        C  0.55492410  0.91299009  0.47549387    -0.08000
C785        C  0.54645561  0.94961946  0.01263802    -0.02500
C786        C  0.56390280  0.94705680  0.04278409     0.04300
N787        N  0.55778025  0.97558271  0.07520547     0.66800
H788        H  0.60059214  0.91423436  0.06506760     0.15700
H789        H  0.54164020  0.91025320  0.45211410     0.15400
N790        N  0.58213571  0.84187332  0.44904922     0.74500
O791        O  0.54653401  0.95051725  0.10051758    -0.38900
O792        O  0.57049499  0.01872082  0.08216532    -0.38900
O793        O  0.56901693  0.79805600  0.44935029    -0.39600
O794        O  0.59046992  0.85954336  0.41936658    -0.39600
C795        C  0.69422005  0.73997133  0.12004505    -0.11900
C796        C  0.67341540  0.72188967  0.14255822     0.05100
C797        C  0.64598090  0.73517567  0.13496116    -0.07200
C798        C  0.63986064  0.76538097  0.10439150    -0.08000
C799        C  0.66066049  0.78180342  0.08090858    -0.02500
C800        C  0.68820486  0.76970445  0.08942998     0.04300
N801        N  0.71047043  0.78717741  0.06771143     0.66800
H802        H  0.71542520  0.73028798  0.12608917     0.15700
H803        H  0.61855589  0.77318684  0.09789262     0.15400
N804        N  0.62400927  0.71463863  0.15604136     0.74500
O805        O  0.71981168  0.83405693  0.07268950    -0.38900
O806        O  0.72597759  0.75190870  0.05414664    -0.38900
O807        O  0.61160773  0.74609312  0.17718278    -0.39600
O808        O  0.61250363  0.67129589  0.14645063    -0.39600
C809        C  0.65169240  0.78214121  0.41867578    -0.11900
C810        C  0.66795659  0.77796579  0.44981525     0.05100
C811        C  0.69217536  0.74668811  0.44805988    -0.07200
C812        C  0.69874870  0.71948192  0.41643936    -0.08000
C813        C  0.68127685  0.72073863  0.38663977    -0.02500
C814        C  0.65765580  0.75309328  0.38765092     0.04300
N815        N  0.63790964  0.75268721  0.35919254     0.66800
H816        H  0.63296389  0.80512144  0.41878750     0.15700
H817        H  0.71725223  0.69524712  0.41577186     0.15400
N818        N  0.70960651  0.73839783  0.47824507     0.74500
O819        O  0.61807548  0.72019822  0.36086536    -0.38900
O820        O  0.63563742  0.79380455  0.33967942    -0.38900
O821        O  0.71010804  0.69186688  0.49171024    -0.39600
O822        O  0.73040699  0.76820144  0.48183466    -0.39600
C823        C  0.91346884  0.85645709  0.49186817    -0.11900
C824        C  0.90379394  0.90920515  0.00910275     0.05100
C825        C  0.88449939  0.90226458  0.03674419    -0.07200
C826        C  0.86851305  0.85556845  0.03723159    -0.08000
C827        C  0.87155008  0.81566015  0.01063573    -0.02500
C828        C  0.89802235  0.80939638  0.48967586     0.04300
N829        N  0.90041162  0.77733129  0.45788900     0.66800
H830        H  0.92623721  0.86765789  0.46937658     0.15700
H831        H  0.85357465  0.85064871  0.05839196     0.15400
N832        N  0.88128447  0.94134072  0.06480103     0.74500
O833        O  0.89032419  0.79541042  0.42917672    -0.38900
O834        O  0.91415592  0.74712638  0.96399298    -0.38900
O835        O  0.87349542  0.93825518  0.58697207    -0.39600
O836        O  0.89328242  0.93376270  0.09442500    -0.39600
C837        C  0.82052530  0.71503290  0.11020484    -0.11900
C838        C  0.82054002  0.68103039  0.07982289     0.05100
C839        C  0.80911213  0.62878941  0.08281880    -0.07200
C840        C  0.79581714  0.61405690  0.11420266    -0.08000
C841        C  0.79386884  0.64956865  0.14335011    -0.02500
C842        C  0.80749937  0.69963167  0.14196117     0.04300
N843        N  0.80693093  0.73670412  0.17146774     0.66800
H844        H  0.82945939  0.75493518  0.10887514     0.15700
H845        H  0.78643578  0.57448715  0.11550716     0.15400
N846        N  0.81051262  0.58972759  0.05453950     0.74500
O847        O  0.82740530  0.73931889  0.19224353    -0.38900
O848        O  0.79023841  0.77553512  0.17074090    -0.38900
O849        O  0.82928020  0.55477009  0.05579400    -0.39600
O850        O  0.78879242  0.57854470  0.03754381    -0.39600
C851        C  0.81302867  0.61811212  0.44634481    -0.11900
C852        C  0.82199203  0.67175030  0.44816979     0.05100
C853        C  0.81865180  0.70506965  0.41776008    -0.07200
C854        C  0.80507575  0.68496202  0.38745277    -0.08000
C855        C  0.79426772  0.63282292  0.38700178    -0.02500
C856        C  0.79912734  0.59849807  0.41628566     0.04300
N857        N  0.79056792  0.54344968  0.41587132     0.66800
H858        H  0.81639590  0.59118837  0.46872047     0.15700
H859        H  0.80141688  0.71160567  0.36497880     0.15400
N860        N  0.82693940  0.76025703  0.41755027     0.74500
O861        O  0.80763037  0.50772754  0.40675317    -0.38900
O862        O  0.77013409  0.53000718  0.43437928    -0.38900
O863        O  0.84375879  0.77499157  0.39396583    -0.39600
O864        O  0.81114115  0.79508546  0.43108274    -0.39600
C865        C  0.86194977  0.74826322  0.51651761     0.80600
N866        N  0.84310240  0.74736893  0.98073397    -0.77700
C867        C  0.82573428  0.70484811  0.98175714     0.83000
N868        N  0.81932053  0.68306627  0.01398434    -0.77700
C869        C  0.83370223  0.68506481  0.54595667     0.83100
N870        N  0.85246535  0.72551642  0.54722203    -0.79400
C871        C  0.62093587  0.84967631  0.51136774     0.80600
N872        N  0.63188990  0.83362220  0.98124086    -0.77700
C873        C  0.65431071  0.80095785  0.98290796     0.83000
N874        N  0.66440564  0.78665538  0.01549499    -0.77700
C875        C  0.65453237  0.80556999  0.54667366     0.83100
N876        N  0.63132102  0.83600562  0.54402442    -0.79400
C877        C  0.81240795  0.27462851  0.51178948     0.80600
N878        N  0.80133456  0.29810946  0.97948332    -0.77700
C879        C  0.77925484  0.33150064  0.97992315     0.83000
N880        N  0.77132500  0.35332644  0.01153643    -0.77700
C881        C  0.78204940  0.33141163  0.54390322     0.83100
N882        N  0.80273151  0.29462210  0.54351865    -0.79400
N883        N  0.97437887  0.97508311  0.50988298    -0.36300
N884        N  0.50642101  0.07485922  0.50171102    -0.56800
N885        N  0.95475988  0.13468855  0.49868938    -0.36300
N886        N  0.92374776  0.03847403  0.51441059    -0.56800
C887        C  0.00006074  0.95490142  0.51292717     0.27300
C888        C  0.95683985  0.93716420  0.52169043     0.27300
C889        C  0.97355333  0.17414687  0.50210956     0.27300
C890        C  0.93034188  0.15630749  0.50756724     0.27300
C891        C  0.52660350  0.03904258  0.49520304     0.35900
C892        C  0.51749077  0.12403110  0.49717885     0.35900
C893        C  0.91292705  0.98851058  0.51480904     0.35900
C894        C  0.90277026  0.07248623  0.50767478     0.35900
C895        C  0.99881051  0.90305345  0.52636312    -0.21500
C896        C  0.97154440  0.89185733  0.53191906    -0.21500
C897        C  0.96093136  0.22172567  0.51276356    -0.21500
C898        C  0.93354181  0.21051247  0.51600476    -0.21500
C899        C  0.55068349  0.06539727  0.48666566    -0.22000
C900        C  0.54485337  0.11955406  0.48775280    -0.22600
C901        C  0.88484841  0.99098162  0.50881158    -0.22600
C902        C  0.87840491  0.04432305  0.50449701    -0.22600
C903        C  0.52371073  0.98310218  0.49933315    -0.18000
C904        C  0.92785902  0.94070643  0.52117703    -0.18000
C905        C  0.90511731  0.12891684  0.50659481    -0.17900
C906        C  0.50363207  0.17262966  0.50432257    -0.17900
H907        H  0.50796635  0.87661204  0.52012463     0.15000
H908        H  0.96342877  0.85434043  0.54199188     0.15000
H909        H  0.97041345  0.26062369  0.51735737     0.15000
H910        H  0.91782130  0.23908949  0.52364753     0.15000
H911        H  0.57035292  0.04745627  0.48057097     0.13200
H912        H  0.55918303  0.15191737  0.48283749     0.13200
H913        H  0.87045079  0.95785234  0.50767256     0.13200
H914        H  0.85813411  0.06052883  0.49965507     0.13200
H915        H  0.96889395  0.01133345  0.49843472     0.26500
H916        H  0.95817548  0.09608812  0.48886312     0.26500
C917        C  0.56765297  0.36694729  0.50822114     0.80600
N918        N  0.57693740  0.38823629  0.53990081    -0.77700
C919        C  0.59511643  0.42964462  0.54010156     0.83000
N920        N  0.61100276  0.43356557  0.01001335    -0.77700
C921        C  0.60139329  0.41429889  0.97827310     0.83100
N922        N  0.58256806  0.37425808  0.97837217    -0.79400
O923        O  0.77827741  0.62592354  0.82673622    -0.74900
O924        O  0.74735497  0.59163137  0.86597700    -0.53900
C925        C  0.76979609  0.61541559  0.85867008     0.78800
O926        O  0.67515184  0.69906453  0.70503318    -0.59500
O927        O  0.69387294  0.64149101  0.66394014    -0.52600
C928        C  0.68089022  0.68466332  0.67281256     0.70800
O929        O  0.68105128  0.70113425  0.82378875    -0.74100
O930        O  0.69552461  0.63680224  0.86274923    -0.54700
C931        C  0.68537311  0.68329010  0.85552868     0.76800
O932        O  0.78292779  0.62710774  0.70500672    -0.59200
O933        O  0.75179311  0.59754926  0.66352784    -0.52400
C934        C  0.77495828  0.61851727  0.67246001     0.73400
Zr935      Zr  0.76391548  0.61006380  0.76450012     2.54700
O936        O  0.78041858  0.70252786  0.76805037    -0.79800
O937        O  0.81036317  0.57407076  0.76673657    -0.93200
Zr938      Zr  0.68740509  0.66512057  0.76380543     2.64700
O939        O  0.70610904  0.75613350  0.76424631    -0.98200
O940        O  0.64008354  0.69596179  0.76720623    -0.80200
O941        O  0.72386518  0.62820132  0.79282351    -0.83600
O942        O  0.72647051  0.64136661  0.72924399    -2.18300
O943        O  0.74429692  0.42790033  0.69957417    -0.67000
O944        O  0.72766827  0.48891998  0.65939141    -0.51600
C945        C  0.73918716  0.44399467  0.66742206     0.71800
O946        O  0.64259366  0.49890004  0.82187681    -0.59900
O947        O  0.67303083  0.53161072  0.86316748    -0.51900
C948        C  0.65043389  0.50920246  0.85438330     0.73600
O949        O  0.64261320  0.50386998  0.69809566    -0.71300
O950        O  0.67461367  0.53448332  0.65881956    -0.50000
C951        C  0.65132584  0.51346829  0.66604322     0.75000
O952        O  0.74596307  0.42351724  0.82057847    -0.66600
O953        O  0.72807130  0.48269412  0.86121773    -0.53800
C954        C  0.74062094  0.43885978  0.85285768     0.73300
Zr955      Zr  0.73591978  0.45878333  0.76092704     2.77500
O956        O  0.71660333  0.36828208  0.75989564    -0.97400
O957        O  0.78240416  0.42321392  0.76035173    -0.78200
Zr958      Zr  0.65878544  0.51495796  0.76048604     2.70100
O959        O  0.64204361  0.42262102  0.75767839    -0.79400
O960        O  0.61210031  0.54983677  0.75999632    -0.98500
Zr961      Zr  0.71109690  0.55988468  0.82869236     2.21500
Zr962      Zr  0.71228811  0.56464526  0.69519916     2.11100
O963        O  0.69745291  0.48716043  0.72679220    -2.47200
O964        O  0.69666889  0.48347483  0.79505572    -0.79200
O965        O  0.75127293  0.53491323  0.72816407    -0.71400
O966        O  0.67180249  0.58981221  0.79665410    -2.32400
O967        O  0.75090883  0.53246215  0.79703241    -2.28600
O968        O  0.67275419  0.59169598  0.72761152    -0.73200
H969        H  0.73193891  0.67070324  0.71406809     0.78800
H970        H  0.65708016  0.60053904  0.81257330     0.79900
H971        H  0.69195517  0.45857353  0.71025126     0.82100
H972        H  0.76542018  0.52162335  0.81295219     0.79700
H973        H  0.63237100  0.67813042  0.78857786     0.42800
H974        H  0.60651532  0.55168219  0.78548526     0.41700
H975        H  0.65181184  0.40402972  0.77739434     0.41400
H976        H  0.70324628  0.36818995  0.77981061     0.39300
H977        H  0.79402465  0.45465422  0.75465364     0.42500
H978        H  0.81182672  0.55076020  0.74513921     0.37300
H979        H  0.76665690  0.72377350  0.75461557     0.43400
H980        H  0.72075796  0.75548088  0.78272748     0.39800
H981        H  0.70516621  0.36687150  0.73787044     0.44700
H982        H  0.81043222  0.54867607  0.78710646     0.43400
H983        H  0.71596746  0.75935416  0.74120059     0.43600
H984        H  0.61410229  0.58798378  0.75286371     0.43900
C985        C  0.61679458  0.45205400  0.63831037    -0.11900
C986        C  0.63406385  0.49689794  0.63501532     0.05100
C987        C  0.63635936  0.52175781  0.60113739    -0.07200
C988        C  0.62260241  0.50004096  0.57146051    -0.08000
C989        C  0.60652708  0.45317476  0.57405437    -0.02500
C990        C  0.60321393  0.42982195  0.60839229     0.04300
N991        N  0.58739509  0.38214222  0.61352307     0.66800
H992        H  0.61482078  0.43227285  0.66401432     0.15700
H993        H  0.62510046  0.51999177  0.54591293     0.15400
N994        N  0.65244160  0.56930535  0.59612279     0.74500
O995        O  0.59961106  0.33736686  0.61494671    -0.38900
O996        O  0.56389248  0.38638531  0.62722008    -0.38900
O997        O  0.67567384  0.56524992  0.58163224    -0.39600
O998        O  0.64070927  0.61462184  0.59665920    -0.39600
C999        C  0.62213755  0.43913767  0.88104546    -0.11900
C1000       C  0.63348229  0.49042423  0.88409427     0.05100
C1001       C  0.63202054  0.51828756  0.91719890    -0.07200
C1002       C  0.62041434  0.49309481  0.94679618    -0.08000
C1003       C  0.61072137  0.43980789  0.94458701    -0.02500
C1004       C  0.61120413  0.41327224  0.91078435     0.04300
N1005       N  0.60237250  0.35915224  0.90570042     0.66800
H1006       H  0.62356227  0.41705265  0.85587213     0.15700
H1007       H  0.61965122  0.51526532  0.97196006     0.15400
N1008       N  0.64256997  0.57171140  0.92155375     0.74500
O1009       O  0.58281062  0.35124265  0.88400440    -0.38900
O1010       O  0.61978330  0.32205964  0.90989831    -0.38900
O1011       O  0.62617665  0.61100037  0.92023677    -0.39600
O1012       O  0.66560015  0.57818003  0.93654683    -0.39600
C1013       C  0.52349908  0.24472288  0.97794439    -0.11900
C1014       C  0.51949233  0.22284621  0.50649423     0.05100
C1015       C  0.53634441  0.23459450  0.53614540    -0.07200
C1016       C  0.55146975  0.28244562  0.53674359    -0.08000
C1017       C  0.54944522  0.31936729  0.50828071    -0.02500
C1018       C  0.54192723  0.28719642  0.97707014     0.04300
N1019       N  0.55090801  0.30315302  0.94253301     0.66800
H1020       H  0.51632704  0.22687149  0.95291947     0.15700
H1021       H  0.56503548  0.29034406  0.55928430     0.15400
N1022       N  0.03444201  0.20303631  0.55409190     0.74500
O1023       O  0.56662343  0.27129320  0.92592636    -0.38900
O1024       O  0.53571194  0.33431215  0.92464563    -0.38900
O1025       O  0.04987288  0.16262013  0.55776347    -0.39600
O1026       O  0.03039140  0.20578645  0.07665745    -0.39600
C1027       C  0.86964832  0.17776129  0.54033169    -0.11900
C1028       C  0.87992229  0.16167936  0.50728456     0.05100
C1029       C  0.87580897  0.20925076  0.97222914    -0.07200
C1030       C  0.85235312  0.24144651  0.97501358    -0.08000
C1031       C  0.83529771  0.23426653  0.51094849    -0.02500
C1032       C  0.84784563  0.21387542  0.54260589     0.04300
N1033       N  0.84024500  0.23118880  0.57763612     0.66800
H1034       H  0.87940638  0.16368807  0.56476129     0.15700
H1035       H  0.84439436  0.26011822  0.95091769     0.15400
N1036       N  0.88924694  0.20281323  0.93846906     0.74500
O1037       O  0.82377011  0.20234883  0.59505699    -0.38900
O1038       O  0.85823082  0.26487188  0.09502849    -0.38900
O1039       O  0.87183040  0.11752635  0.42939369    -0.39600
O1040       O  0.90958887  0.23227515  0.93155576    -0.39600
C1041       C  0.77476226  0.38718778  0.63944243    -0.11900
C1042       C  0.74846823  0.40938937  0.63758540     0.05100
C1043       C  0.73250457  0.40063497  0.60650167    -0.07200
C1044       C  0.74368628  0.37307406  0.57723619    -0.08000
C1045       C  0.77079995  0.35397480  0.57786581    -0.02500
C1046       C  0.78611819  0.35991371  0.61005987     0.04300
N1047       N  0.81344505  0.34051153  0.61365519     0.66800
H1048       H  0.78718013  0.39320792  0.66337411     0.15700
H1049       H  0.73097947  0.36718774  0.55360120     0.15400
N1050       N  0.70475511  0.41853892  0.60424467     0.74500
O1051       O  0.83291424  0.37173068  0.60591331    -0.38900
O1052       O  0.81776404  0.30330503  0.63589254    -0.38900
O1053       O  0.68578690  0.38507855  0.60967515    -0.39600
O1054       O  0.69947782  0.46070545  0.58684084    -0.39600
C1055       C  0.78345919  0.35193304  0.91516329    -0.11900
C1056       C  0.76686234  0.35076021  0.94583492     0.05100
C1057       C  0.74034127  0.37400088  0.94391474    -0.07200
C1058       C  0.73196148  0.40032718  0.91267477    -0.08000
C1059       C  0.74931959  0.40439825  0.88298926    -0.02500
C1060       C  0.77511714  0.37879721  0.88408990     0.04300
N1061       N  0.79428664  0.38408744  0.85550945     0.66800
H1062       H  0.80393908  0.33507206  0.91594485     0.15700
H1063       H  0.71182990  0.41884260  0.91194502     0.15400
N1064       N  0.72151731  0.37176983  0.97313582     0.74500
O1065       O  0.81141912  0.42214354  0.85679287    -0.38900
O1066       O  0.79919300  0.34369029  0.83579082    -0.38900
O1067       O  0.71731060  0.41406054  0.99133464    -0.39600
O1068       O  0.70336986  0.33554657  0.97272622    -0.39600
C1069       C  0.58894108  0.91872951  0.53589381    -0.11900
C1070       C  0.59549513  0.88239688  0.50815775     0.05100
C1071       C  0.57743940  0.89054325  0.97960828    -0.07200
C1072       C  0.55355659  0.92172342  0.98127806    -0.08000
C1073       C  0.54870459  0.94938765  0.50301467    -0.02500
C1074       C  0.56588500  0.95218561  0.53352325     0.04300
N1075       N  0.55997340  0.98798998  0.56265438     0.66800
H1076       H  0.60199232  0.92183483  0.55944753     0.15700
H1077       H  0.54037163  0.92419796  0.95782241     0.15400
N1078       N  0.58309473  0.86257982  0.94681689     0.74500
O1079       O  0.54849166  0.96958521  0.59023941    -0.38900
O1080       O  0.57256512  0.03230212  0.56484583    -0.38900
O1081       O  0.57043948  0.81928991  0.94011196    -0.39600
O1082       O  0.59313772  0.88864374  0.92107084    -0.39600
C1083       C  0.69427690  0.72965347  0.61787064    -0.11900
C1084       C  0.67404855  0.72147317  0.64349843     0.05100
C1085       C  0.64875335  0.74841319  0.64008976    -0.07200
C1086       C  0.64335115  0.77844569  0.60913606    -0.08000
C1087       C  0.66313402  0.78364970  0.58197806    -0.02500
C1088       C  0.68948515  0.76133920  0.58786061     0.04300
N1089       N  0.71224416  0.77209438  0.56508958     0.66800
H1090       H  0.71441758  0.71191946  0.62156115     0.15700
H1091       H  0.62313338  0.79582272  0.60581916     0.15400
N1092       N  0.62797149  0.74415989  0.66677353     0.74500
O1093       O  0.72365935  0.81756436  0.56777171    -0.38900
O1094       O  0.72642708  0.73270556  0.55431378    -0.38900
O1095       O  0.62418001  0.78334693  0.68797320    -0.39600
O1096       O  0.60912572  0.70987466  0.66251189    -0.39600
C1097       C  0.65131036  0.78574497  0.91705135    -0.11900
C1098       C  0.66508419  0.77576732  0.94956903     0.05100
C1099       C  0.68714887  0.73863059  0.94942042    -0.07200
C1100       C  0.69357905  0.71056462  0.91813668    -0.08000
C1101       C  0.67871281  0.71819485  0.88640032    -0.02500
C1102       C  0.65776660  0.75742243  0.88570593     0.04300
N1103       N  0.64162522  0.76705400  0.85430559     0.66800
H1104       H  0.63455015  0.81425535  0.91594277     0.15700
H1105       H  0.71038242  0.68195130  0.91894481     0.15400
N1106       N  0.70370031  0.72859424  0.98029195     0.74500
O1107       O  0.61909857  0.74261387  0.85069341    -0.38900
O1108       O  0.64540187  0.81004688  0.83714292    -0.38900
O1109       O  0.69906064  0.68674549  0.99833925    -0.39600
O1110       O  0.72738100  0.74897508  0.98135026    -0.39600
C1111       C  0.90645800  0.86992047  0.98237905    -0.11900
C1112       C  0.91236983  0.88965649  0.52220147     0.05100
C1113       C  0.89578271  0.87511032  0.55135150    -0.07200
C1114       C  0.88028701  0.82783762  0.54935547    -0.08000
C1115       C  0.88078375  0.79487051  0.51849213    -0.02500
C1116       C  0.89091946  0.82307893  0.98313749     0.04300
N1117       N  0.89641048  0.78249605  0.95683628     0.66800
H1118       H  0.92133290  0.87511632  0.96115101     0.15700
H1119       H  0.86715841  0.81790792  0.57172462     0.15400
N1120       N  0.89408826  0.90810285  0.58284522     0.74500
O1121       O  0.89155863  0.79310382  0.92438090    -0.38900
O1122       O  0.91986952  0.74397795  0.45585941    -0.38900
O1123       O  0.86113746  0.97320409  0.06368488    -0.39600
O1124       O  0.90837250  0.89588220  0.60991830    -0.39600
C1125       C  0.82453412  0.69307611  0.61167907    -0.11900
C1126       C  0.82167415  0.66330161  0.57956052     0.05100
C1127       C  0.80588194  0.61535876  0.58011826    -0.07200
C1128       C  0.79192295  0.60103733  0.61121578    -0.08000
C1129       C  0.79334093  0.63270309  0.64247814    -0.02500
C1130       C  0.81079005  0.67806336  0.64302385     0.04300
N1131       N  0.81392966  0.71086856  0.67444842     0.66800
H1132       H  0.83676666  0.72949861  0.61233510     0.15700
H1133       H  0.77947409  0.56483426  0.61065490     0.15400
N1134       N  0.80372767  0.58006746  0.54973156     0.74500
O1135       O  0.83496241  0.70476677  0.69385287    -0.38900
O1136       O  0.80041073  0.75407497  0.67699763    -0.38900
O1137       O  0.81805230  0.53770587  0.54927754    -0.39600
O1138       O  0.78229932  0.58177580  0.53065146    -0.39600
C1139       C  0.79926115  0.63271619  0.95190914    -0.11900
C1140       C  0.81327242  0.68178243  0.94871921     0.05100
C1141       C  0.81437568  0.70633954  0.91454350    -0.07200
C1142       C  0.80118550  0.68211437  0.88530847    -0.08000
C1143       C  0.78626000  0.63450226  0.88923376    -0.02500
C1144       C  0.78559415  0.60925570  0.92302415     0.04300
N1145       N  0.77148017  0.55959021  0.92880937     0.66800
H1146       H  0.79866987  0.61182925  0.97714367     0.15700
H1147       H  0.80168251  0.70225576  0.85958542     0.15400
N1148       N  0.82825810  0.75592066  0.90838935     0.74500
O1149       O  0.78512888  0.51637945  0.92896039    -0.38900
O1150       O  0.74869152  0.56079215  0.94467008    -0.38900
O1151       O  0.84904793  0.75475225  0.88843594    -0.39600
O1152       O  0.81473295  0.79916986  0.91060657    -0.39600
loop_ 
_geom_bond_atom_site_label_1 
_geom_bond_atom_site_label_2 
_geom_bond_distance 
_geom_bond_site_symmetry_2 
_ccdc_geom_bond_type 
C1            N6   1.363   1_556  A
C1          N290   1.363       .  A
C1          C251   1.494       .  S
N2            C3   1.355       .  A
N2          C289   1.361       .  A
C3            N4   1.357       .  A
C3          C276   1.483       .  S
N4          C293   1.353       .  A
C5            N6   1.357       .  A
C5          N292   1.347   1_554  A
C5          C262   1.489       .  S
C7           N12   1.354   1_556  A
C7          N296   1.354       .  A
C7          C206   1.476       .  S
N8            C9   1.366       .  A
N8          C295   1.357       .  A
C9           N10   1.359       .  A
C9          C234   1.482       .  S
N10         C299   1.354       .  A
C11          N12   1.353       .  A
C11         N298   1.357   1_554  A
C11         C223   1.474       .  S
C13          N18   1.366   1_556  A
C13         N302   1.364       .  A
C13         C167   1.491       .  S
N14          C15   1.363       .  A
N14         C301   1.366       .  A
C15          N16   1.352       .  A
C15         C192   1.494       .  S
N16         C305   1.358       .  A
C17          N18   1.362       .  A
C17         N304   1.357   1_554  A
C17         C181   1.487       .  S
N19          C24   1.352       .  A
N19          C23   1.354       .  A
N19          H51   1.031   1_564  S
N20          C27   1.346       .  A
N20          C28   1.345       .  A
N21          C26   1.350       .  A
N21          C25   1.349   1_556  A
N21          H52   1.034       .  S
N22          C29   1.350   1_545  A
N22          C30   1.351       .  A
C23          C31   1.386       .  A
C23         C615   1.417       .  A
C24          C40   1.419   1_554  A
C24          C32   1.388       .  A
C25          C33   1.387       .  A
C25         C618   1.407       .  A
C26          C41   1.412       .  A
C26          C34   1.389   1_556  A
C27          C39   1.404   1_545  A
C27          C35   1.386       .  A
C28          C42   1.402       .  A
C28          C36   1.386       .  A
C29          C37   1.388       .  A
C29          C40   1.417       .  A
C30          C38   1.385       .  A
C30          C41   1.412       .  A
C31          C32   1.376       .  A
C31         H619   1.082       .  S
C32          H44   1.082       .  S
C33          C34   1.371       .  A
C33          H45   1.082       .  S
C34          H46   1.082       .  S
C35          C36   1.372       .  A
C35          H47   1.082       .  S
C36          H48   1.082       .  S
C37          C38   1.373   1_565  A
C37          H49   1.082       .  S
C38          H50   1.083       .  S
C39         C209   1.479       .  S
C39         C599   1.411   1_456  A
C40         C248   1.481       .  S
C41         C164   1.478       .  S
C42         C150   1.462       .  S
C42         C601   1.406   1_456  A
H43         C607   1.082   1_455  S
C53          N54   1.359   1_556  A
C53         N346   1.364       .  A
C53         C153   1.478       .  S
N54          C55   1.352       .  A
C55         N344   1.361   1_554  A
C55         C125   1.496       .  S
N56          C57   1.356       .  A
N56         C343   1.352       .  A
C57          N58   1.358       .  A
C57         C139   1.479       .  S
N58         C341   1.363       .  A
O59         Zr71   2.441       .  S
O59          C61   1.288       .  A
O60         Zr97   2.409       .  S
O60          C61   1.284       .  A
C61         C279   1.472       .  S
O62         Zr74   2.416       .  S
O62          C64   1.281       .  A
O63         Zr98   2.397       .  S
O63          C64   1.282       .  A
C64         C220   1.450       .  S
O65         Zr74   2.411       .  S
O65          C67   1.280       .  A
O66         Zr97   2.420       .  S
O66          C67   1.287       .  A
C67         C237   1.467       .  S
O68         Zr71   2.453       .  S
O68          C70   1.288       .  A
O69         Zr98   2.398       .  S
O69          C70   1.283       .  A
C70         C265   1.487       .  S
Zr71         O72   2.434       .  S
Zr71         O73   2.436       .  S
Zr71         O77   2.380       .  S
Zr71         O78   2.372       .  S
Zr71        O101   2.371       .  S
Zr71        O103   2.371       .  S
O72         H115   0.990       .  S
O73         H114   0.990       .  S
O73         H118   0.990       .  S
Zr74         O75   2.435       .  S
Zr74         O76   2.434       .  S
Zr74         O78   2.372       .  S
Zr74         O77   2.376       .  S
Zr74        O102   2.366       .  S
Zr74        O104   2.369       .  S
O75         H116   0.990       .  S
O75         H119   0.990       .  S
O76         H109   0.990       .  S
O77         Zr97   2.373       .  S
O78         Zr98   2.372       .  S
O78         H105   0.956       .  S
O79         Zr91   2.442       .  S
O79          C81   1.288       .  A
O80         Zr98   2.401       .  S
O80          C81   1.282       .  A
C81         C178   1.470       .  S
O82         Zr94   2.442       .  S
O82          C84   1.288       .  A
O83         Zr97   2.399       .  S
O83          C84   1.282       .  A
C84         C136   1.465       .  S
O85         Zr94   2.462       .  S
O85          C87   1.292       .  A
O86         Zr98   2.406       .  S
O86          C87   1.282       .  A
C87         C122   1.483       .  S
O88         Zr91   2.463       .  S
O88          C90   1.290       .  A
O89         Zr97   2.410       .  S
O89          C90   1.285       .  A
C90         C195   1.483       .  S
Zr91         O92   2.437       .  S
Zr91         O93   2.434       .  S
Zr91         O99   2.380       .  S
Zr91        O100   2.371       .  S
Zr91        O103   2.371       .  S
Zr91        O101   2.379       .  S
O92         H112   0.989       .  S
O92         H117   0.990       .  S
O93         H113   0.990       .  S
Zr94         O95   2.434       .  S
Zr94         O96   2.437       .  S
Zr94        O100   2.384       .  S
Zr94         O99   2.370       .  S
Zr94        O104   2.364       .  S
Zr94        O102   2.371       .  S
O95         H111   0.990       .  S
O96         H110   0.990       .  S
O96         H120   0.990       .  S
Zr97        O100   2.379       .  S
Zr97        O102   2.376       .  S
Zr97        O103   2.376       .  S
Zr98         O99   2.378       .  S
Zr98        O101   2.375       .  S
Zr98        O104   2.365       .  S
O99         H107   0.965       .  S
O102        H106   0.962       .  S
O103        H108   0.960       .  S
C121        C122   1.400       .  A
C121        C126   1.401       .  A
C121        H128   1.084       .  S
C122        C123   1.413       .  A
C123        C124   1.399       .  A
C123        N130   1.429       .  S
C124        C125   1.406       .  A
C124        H129   1.083       .  S
C125        C126   1.422       .  A
C126        N127   1.428       .  S
N127        O131   1.262       .  A
N127        O132   1.262       .  A
N130        O134   1.262       .  A
N130        O133   1.262       .  A
C135        C136   1.400       .  A
C135        C140   1.400       .  A
C135        H142   1.084       .  S
C136        C137   1.407       .  A
C137        C138   1.390       .  A
C137        N144   1.430       .  S
C138        C139   1.405       .  A
C138        H143   1.084       .  S
C139        C140   1.415       .  A
C140        N141   1.427       .  S
N141        O145   1.261       .  A
N141        O146   1.262       .  A
N144        O148   1.262       .  A
N144        O147   1.262       .  A
C149        C154   1.393       .  A
C149        C438   1.393       .  A
C149        H156   1.084       .  S
C150        C151   1.400   1_556  A
C150        C437   1.390       .  A
C151        C152   1.397       .  A
C151        N734   1.430       .  S
C152        C153   1.412   1_554  A
C152        H157   1.082       .  S
C153        C442   1.413       .  A
C154        C441   1.416       .  A
C154        N155   1.427       .  S
N155        O159   1.260       .  A
N155        O160   1.262       .  A
N158        C727   1.428       .  S
N158        O450   1.262       .  A
N158        O161   1.262       .  A
O162        N446   1.262       .  A
C163        C164   1.392   1_554  A
C163        C168   1.394       .  A
C163        H170   1.084       .  S
C164        C453   1.403       .  A
C165        C166   1.402       .  A
C165        C452   1.402       .  A
C165        N172   1.429       .  S
C166        C455   1.410       .  A
C166        H171   1.083       .  S
C167        C168   1.417   1_556  A
C167        C454   1.413       .  A
C168        N169   1.424       .  S
N169        O173   1.262       .  A
N169        O462   1.261       .  A
N172        O176   1.262       .  A
N172        O463   1.262       .  A
O174        N457   1.260       .  A
O175        N460   1.262       .  A
C177        C178   1.401       .  A
C177        C182   1.400       .  A
C177        H184   1.084       .  S
C178        C179   1.407       .  A
C179        C180   1.391       .  A
C179        N186   1.429       .  S
C180        C181   1.407       .  A
C180        H185   1.080       .  S
C181        C182   1.416       .  A
C182        N183   1.426       .  S
N183        O187   1.262       .  A
N183        O188   1.261       .  A
N186        O190   1.262       .  A
N186        O189   1.262       .  A
C191        C192   1.407       .  A
C191        C196   1.406       .  A
C191        H198   1.083       .  S
C192        C193   1.420       .  A
C193        C194   1.395       .  A
C193        N200   1.429       .  S
C194        C195   1.399       .  A
C194        H199   1.085       .  S
C195        C196   1.412       .  A
C196        N197   1.427       .  S
N197        O201   1.262       .  A
N197        O202   1.262       .  A
N200        O204   1.262       .  A
N200        O203   1.262       .  A
C205        C206   1.403   1_554  A
C205        C210   1.390       .  A
C205        H212   1.084       .  S
C206        C495   1.415       .  A
C207        C208   1.401       .  A
C207        C494   1.417       .  A
C207        N214   1.428       .  S
C208        C497   1.399       .  A
C208        H213   1.084       .  S
C209        C210   1.407   1_556  A
C209        C496   1.401       .  A
C210        N211   1.429       .  S
N211        O215   1.262       .  A
N211        O216   1.262   1_565  A
N214        O218   1.262       .  A
N214        O217   1.262       .  A
C219        C220   1.393       .  A
C219        C224   1.390       .  A
C219        H226   1.085       .  S
C220        C221   1.403       .  A
C221        C222   1.395       .  A
C221        N228   1.429       .  S
C222        C223   1.408       .  A
C222        H227   1.084       .  S
C223        C224   1.413       .  A
C224        N225   1.427       .  S
N225        O229   1.262       .  A
N225        O230   1.262       .  A
N228        O232   1.262       .  A
N228        O231   1.262       .  A
C233        C234   1.404       .  A
C233        C238   1.395       .  A
C233        H240   1.083       .  S
C234        C235   1.417       .  A
C235        C236   1.391       .  A
C235        N242   1.425       .  S
C236        C237   1.395       .  A
C236        H241   1.085       .  S
C237        C238   1.411       .  A
C238        N239   1.428       .  S
N239        O243   1.262       .  A
N239        O244   1.262       .  A
N242        O246   1.262       .  A
N242        O245   1.262       .  A
C247        C252   1.394       .  A
C247        C536   1.394       .  A
C247        H254   1.084       .  S
C248        C249   1.405   1_556  A
C248        C535   1.393       .  A
C249        C250   1.397       .  A
C249        N256   1.427       .  S
C250        C251   1.410   1_554  A
C250        H255   1.083       .  S
C251        C540   1.420       .  A
C252        C539   1.418       .  A
C252        N253   1.427       .  S
N253        O257   1.262       .  A
N253        O546   1.262       .  A
N256        O260   1.262       .  A
N256        O547   1.262       .  A
O258        N541   1.262       .  A
O259        N544   1.262       .  A
C261        C262   1.406       .  A
C261        C266   1.402       .  A
C261        H268   1.083       .  S
C262        C263   1.418       .  A
C263        C264   1.392       .  A
C263        N270   1.430       .  S
C264        C265   1.404       .  A
C264        H269   1.084       .  S
C265        C266   1.413       .  A
C266        N267   1.427       .  S
N267        O271   1.262       .  A
N267        O272   1.262       .  A
N270        O274   1.262   1_554  A
N270        O273   1.262       .  A
C275        C276   1.405       .  A
C275        C280   1.393       .  A
C275        H282   1.082       .  S
C276        C277   1.417       .  A
C277        C278   1.399       .  A
C277        N284   1.429       .  S
C278        C279   1.402       .  A
C278        H283   1.084       .  S
C279        C280   1.409       .  A
C280        N281   1.429       .  S
N281        O285   1.262       .  A
N281        O286   1.262       .  A
N284        O288   1.262       .  A
N284        O287   1.262       .  A
C289        N294   1.365       .  A
C289        C539   1.489       .  S
N290        C291   1.362       .  A
C291        N292   1.355       .  A
C291        C564   1.479       .  S
C293        N294   1.364       .  A
C293        C550   1.497       .  S
C295        N300   1.354       .  A
C295        C494   1.484       .  S
N296        C297   1.364       .  A
C297        N298   1.360       .  A
C297        C522   1.485       .  S
C299        N300   1.352       .  A
C299        C511   1.469       .  S
C301        N306   1.362       .  A
C301        C455   1.485       .  S
N302        C303   1.360       .  A
C303        N304   1.350       .  A
C303        C480   1.488       .  S
C305        N306   1.356       .  A
C305        C469   1.486       .  S
N307        C312   1.351       .  A
N307        C311   1.354       .  A
N307        H339   1.038   1_565  S
N308        C315   1.347       .  A
N308        C316   1.344       .  A
N309        C314   1.349       .  A
N309        C313   1.345       .  A
N309        H340   1.037       .  S
N310        C317   1.345   1_545  A
N310        C318   1.347       .  A
C311        C319   1.386       .  A
C311        C903   1.413       .  A
C312        C328   1.412       .  A
C312        C320   1.387       .  A
C313        C321   1.387       .  A
C313        C906   1.405       .  A
C314        C329   1.406       .  A
C314        C322   1.387       .  A
C315        C327   1.406   1_545  A
C315        C323   1.386       .  A
C316        C330   1.404       .  A
C316        C324   1.387       .  A
C317        C325   1.387   1_565  A
C317        C328   1.405       .  A
C318        C326   1.385       .  A
C318        C329   1.404       .  A
C319        C320   1.375       .  A
C319        H907   1.082       .  S
C320        H332   1.082       .  S
C321        C322   1.375       .  A
C321        H333   1.083       .  S
C322        H334   1.082       .  S
C323        C324   1.370       .  A
C323        H335   1.082       .  S
C324        H336   1.083       .  S
C325        C326   1.371       .  A
C325        H337   1.082   1_545  S
C326        H338   1.083       .  S
C327        C497   1.480       .  S
C327        C887   1.415       .  A
C328        C536   1.471       .  S
C329        C452   1.472       .  S
C330        C438   1.461       .  S
C330        C889   1.405   1_455  A
H331        C895   1.082   1_455  S
C341        N342   1.362       .  A
C341        C441   1.473       .  S
N342        C343   1.352       .  A
C343        C413   1.488       .  S
N344        C345   1.363       .  A
C345        N346   1.362       .  A
C345        C427   1.502       .  S
O347       Zr359   2.440       .  S
O347        C349   1.288       .  A
O348       Zr385   2.405       .  S
O348        C349   1.282       .  A
C349        C567   1.468       .  S
O350       Zr362   2.429       .  S
O350        C352   1.283       .  A
O351       Zr386   2.388       .  S
O351        C352   1.280       .  A
C352        C508   1.454       .  S
O353       Zr362   2.425       .  S
O353        C355   1.283       .  A
O354       Zr385   2.412       .  S
O354        C355   1.287       .  A
C355        C525   1.471       .  S
O356       Zr359   2.458       .  S
O356        C358   1.289       .  A
O357       Zr386   2.421       .  S
O357        C358   1.287       .  A
C358        C553   1.489       .  S
Zr359       O360   2.435       .  S
Zr359       O361   2.438       .  S
Zr359       O365   2.377       .  S
Zr359       O366   2.373       .  S
Zr359       O391   2.377       .  S
Zr359       O389   2.275       .  S
O360        H403   0.990       .  S
O361        H402   0.990       .  S
O361        H406   0.990       .  S
Zr362       O363   2.438       .  S
Zr362       O364   2.434       .  S
Zr362       O366   2.374       .  S
Zr362       O365   2.385       .  S
Zr362       O390   2.365       .  S
Zr362       O392   2.372       .  S
O363        H404   0.990       .  S
O363        H407   0.990       .  S
O364        H397   0.990       .  S
O365       Zr385   2.385       .  S
O366       Zr386   2.372       .  S
O366        H393   0.959       .  S
O367       Zr379   2.445       .  S
O367        C369   1.288       .  A
O368       Zr386   2.393       .  S
O368        C369   1.280       .  A
C369        C466   1.471       .  S
O370       Zr382   2.473       .  S
O370        C372   1.295       .  A
O371       Zr385   2.416       .  S
O371        C372   1.285       .  A
C372        C424   1.487       .  S
O373       Zr382   2.459       .  S
O373        C375   1.292       .  A
O374       Zr386   2.399       .  S
O374        C375   1.281       .  A
C375        C410   1.481       .  S
O376       Zr379   2.450       .  S
O376        C378   1.287       .  A
O377       Zr385   2.411       .  S
O377        C378   1.286       .  A
C378        C483   1.481       .  S
Zr379       O380   2.435       .  S
Zr379       O381   2.439       .  S
Zr379       O387   2.366       .  S
Zr379       O388   2.381       .  S
Zr379       O391   2.366       .  S
Zr379       O389   2.277       .  S
O380        H400   0.990       .  S
O380        H405   0.990       .  S
O381        H401   0.989       .  S
Zr382       O383   2.433       .  S
Zr382       O384   2.435       .  S
Zr382       O388   2.382       .  S
Zr382       O387   2.379       .  S
Zr382       O392   2.377       .  S
Zr382       O390   2.363       .  S
O383        H399   0.990       .  S
O384        H398   0.990       .  S
O384        H408   0.990       .  S
Zr385       O388   2.379       .  S
Zr385       O390   2.372       .  S
Zr385       O391   2.385       .  S
Zr386       O387   2.380       .  S
Zr386       O392   2.370       .  S
Zr386       O389   2.258       .  S
O387        H395   0.973       .  S
O390        H394   0.971       .  S
O391        H396   0.963       .  S
C409        C410   1.403       .  A
C409        C414   1.401       .  A
C409        H416   1.084       .  S
C410        C411   1.414       .  A
C411        C412   1.394       .  A
C411        N418   1.431       .  S
C412        C413   1.406       .  A
C412        H417   1.084       .  S
C413        C414   1.417       .  A
C414        N415   1.428       .  S
N415        O419   1.262       .  A
N415        O420   1.262       .  A
N418        O422   1.261       .  A
N418        O421   1.261       .  A
C423        C424   1.399       .  A
C423        C428   1.404       .  A
C423        H430   1.084       .  S
C424        C425   1.413       .  A
C425        C426   1.400       .  A
C425        N432   1.429       .  S
C426        C427   1.407       .  A
C426        H431   1.083       .  S
C427        C428   1.420       .  A
C428        N429   1.423       .  S
N429        O433   1.262       .  A
N429        O434   1.262       .  A
N432        O436   1.261       .  A
N432        O435   1.262       .  A
C437        C442   1.389       .  A
C437        H444   1.085       .  S
C438        C439   1.400       .  A
C439        C440   1.390       .  A
C439       N1022   1.430       .  S
C440        C441   1.408       .  A
C440        H445   1.083       .  S
C442        N443   1.423       .  S
N443        O447   1.260       .  A
N443        O448   1.262       .  A
N446       C1015   1.430       .  S
N446        O449   1.262       .  A
C451        C452   1.391       .  A
C451        C456   1.394       .  A
C451        H458   1.084       .  S
C453        C454   1.405       .  A
C453        N460   1.430       .  S
C454        H459   1.083       .  S
C455        C456   1.418       .  A
C456        N457   1.426       .  S
N457        O461   1.262       .  A
N460        O464   1.262       .  A
C465        C466   1.398       .  A
C465        C470   1.399       .  A
C465        H472   1.084       .  S
C466        C467   1.409       .  A
C467        C468   1.388       .  A
C467        N474   1.426       .  S
C468        C469   1.402       .  A
C468        H473   1.080       .  S
C469        C470   1.418       .  A
C470        N471   1.425       .  S
N471        O475   1.262       .  A
N471        O476   1.261       .  A
N474        O478   1.261       .  A
N474        O477   1.262       .  A
C479        C480   1.405       .  A
C479        C484   1.402       .  A
C479        H486   1.084       .  S
C480        C481   1.419       .  A
C481        C482   1.394       .  A
C481        N488   1.429       .  S
C482        C483   1.400       .  A
C482        H487   1.085       .  S
C483        C484   1.412       .  A
C484        N485   1.427       .  S
N485        O489   1.262       .  A
N485        O490   1.262       .  A
N488        O492   1.262       .  A
N488        O491   1.262       .  A
C493        C494   1.406       .  A
C493        C498   1.393       .  A
C493        H500   1.084       .  S
C495        C496   1.401       .  A
C495        N502   1.428       .  S
C496        H501   1.084       .  S
C497        C498   1.406       .  A
C498        N499   1.428       .  S
N499        O503   1.262       .  A
N499        O504   1.262   1_565  A
N502        O506   1.262       .  A
N502        O505   1.262       .  A
C507        C508   1.397       .  A
C507        C512   1.390       .  A
C507        H514   1.085       .  S
C508        C509   1.404       .  A
C509        C510   1.394       .  A
C509        N516   1.429       .  S
C510        C511   1.407       .  A
C510        H515   1.084       .  S
C511        C512   1.411       .  A
C512        N513   1.428       .  S
N513        O517   1.262       .  A
N513        O518   1.261       .  A
N516        O520   1.262       .  A
N516        O519   1.262       .  A
C521        C522   1.406       .  A
C521        C526   1.396       .  A
C521        H528   1.083       .  S
C522        C523   1.416       .  A
C523        C524   1.390       .  A
C523        N530   1.423       .  S
C524        C525   1.396       .  A
C524        H529   1.085       .  S
C525        C526   1.411       .  A
C526        N527   1.428       .  S
N527        O531   1.262       .  A
N527        O532   1.262       .  A
N530        O534   1.262       .  A
N530        O533   1.262       .  A
C535        C540   1.398       .  A
C535        H542   1.085       .  S
C536        C537   1.399       .  A
C537        C538   1.400       .  A
C537        N544   1.430       .  S
C538        C539   1.414       .  A
C538        H543   1.083       .  S
C540        N541   1.424       .  S
N541        O545   1.261       .  A
N544        O548   1.262       .  A
C549        C550   1.407       .  A
C549        C554   1.406       .  A
C549        H556   1.082       .  S
C550        C551   1.421       .  A
C551        C552   1.396       .  A
C551        N558   1.429       .  S
C552        C553   1.401       .  A
C552        H557   1.085       .  S
C553        C554   1.415       .  A
C554        N555   1.427       .  S
N555        O559   1.262       .  A
N555        O560   1.262       .  A
N558        O562   1.262       .  A
N558        O561   1.262       .  A
C563        C564   1.407       .  A
C563        C568   1.393       .  A
C563        H570   1.083       .  S
C564        C565   1.411       .  A
C565        C566   1.393       .  A
C565        N572   1.423       .  S
C566        C567   1.399       .  A
C566        H571   1.084       .  S
C567        C568   1.410       .  A
C568        N569   1.430       .  S
N569        O573   1.262       .  A
N569        O574   1.262       .  A
N572        O576   1.262       .  A
N572        O575   1.262       .  A
C577        N866   1.358   1_554  A
C577        N582   1.360       .  A
C577        C827   1.469       .  S
N578        C865   1.357       .  A
N578        C579   1.354       .  A
C579        N580   1.358       .  A
C579        C852   1.472       .  S
N580        C869   1.353       .  A
C581        N868   1.351       .  A
C581        N582   1.357       .  A
C581        C838   1.483       .  S
C583        N872   1.356   1_554  A
C583        N588   1.359       .  A
C583        C782   1.489       .  S
N584        C871   1.350       .  A
N584        C585   1.358       .  A
C585        N586   1.358       .  A
C585        C810   1.484       .  S
N586        C875   1.361       .  A
C587        N874   1.355       .  A
C587        N588   1.357       .  A
C587        C799   1.474       .  S
C589        N878   1.362   1_554  A
C589        N594   1.361       .  A
C589        C743   1.489       .  S
N590        C877   1.366       .  A
N590        C591   1.362       .  A
C591        N592   1.353       .  A
C591        C768   1.494       .  S
N592        C881   1.359       .  A
C593        N880   1.358       .  A
C593        N594   1.358       .  A
C593        C757   1.476       .  S
N595        C600   1.351   1_556  A
N595        C599   1.352   1_556  A
N595        H627   1.038   1_565  S
N596        C603   1.350       .  A
N596        C604   1.347       .  A
N597        C602   1.347   1_556  A
N597        C601   1.345   1_556  A
N597        H628   1.037       .  S
N598        C605   1.344   1_554  A
N598        C606   1.345   1_554  A
C599        C607   1.385       .  A
C600        C616   1.414       .  A
C600        C608   1.387       .  A
C601        C609   1.389       .  A
C602        C617   1.404       .  A
C602        C610   1.386       .  A
C603        C615   1.411   1_545  A
C603        C611   1.386       .  A
C604        C618   1.409       .  A
C604        C612   1.388       .  A
C605        C613   1.386       .  A
C605        C616   1.402   1_546  A
C606        C614   1.386       .  A
C606        C617   1.401   1_556  A
C607        C608   1.375       .  A
C608        H620   1.082       .  S
C609        C610   1.374       .  A
C609        H621   1.083       .  S
C610        H622   1.082       .  S
C611        C612   1.369       .  A
C611        H623   1.082       .  S
C612        H624   1.082       .  S
C613        C614   1.370       .  A
C613        H625   1.082   1_545  S
C614        H626   1.082       .  S
C615        C785   1.485       .  S
C616        C824   1.474       .  S
C617        C740   1.465       .  S
C618        C726   1.466       .  S
C629        N630   1.370       .  A
C629        N922   1.362   1_554  A
C629        C729   1.491       .  S
N630        C631   1.362       .  A
C631        N920   1.355       .  A
C631        C701   1.496       .  S
N632        C919   1.356       .  A
N632        C633   1.355       .  A
C633        N634   1.357       .  A
C633        C715   1.486       .  S
N634        C917   1.363       .  A
O635       Zr647   2.435       .  S
O635        C637   1.287       .  A
O636       Zr673   2.404       .  S
O636        C637   1.282       .  A
C637        C855   1.463       .  S
O638       Zr650   2.443       .  S
O638        C640   1.286       .  A
O639       Zr674   2.396       .  S
O639        C640   1.281       .  A
C640        C796   1.461       .  S
O641       Zr650   2.420       .  S
O641        C643   1.283       .  A
O642       Zr673   2.402       .  S
O642        C643   1.284       .  A
C643        C813   1.462       .  S
O644       Zr647   2.429       .  S
O644        C646   1.284       .  A
O645       Zr674   2.418       .  S
O645        C646   1.287       .  A
C646        C841   1.471       .  S
Zr647       O648   2.435       .  S
Zr647       O649   2.436       .  S
Zr647       O653   2.370       .  S
Zr647       O654   2.377       .  S
Zr647       O677   2.376       .  S
Zr647       O679   2.370       .  S
O648        H691   0.990       .  S
O649        H690   0.990       .  S
O649        H694   0.990       .  S
Zr650       O651   2.435       .  S
Zr650       O652   2.437       .  S
Zr650       O654   2.369       .  S
Zr650       O653   2.386       .  S
Zr650       O678   2.367       .  S
Zr650       O680   2.365       .  S
O651        H692   0.990       .  S
O651        H695   0.990       .  S
O652        H685   0.990       .  S
O653       Zr673   2.379       .  S
O654       Zr674   2.372       .  S
O654        H681   0.956       .  S
O655       Zr667   2.441       .  S
O655        C657   1.288       .  A
O656       Zr674   2.388       .  S
O656        C657   1.279       .  A
C657        C754   1.458       .  S
O658       Zr670   2.456       .  S
O658        C660   1.291       .  A
O659       Zr673   2.408       .  S
O659        C660   1.283       .  A
C660        C712   1.474       .  S
O661       Zr670   2.462       .  S
O661        C663   1.293       .  A
O662       Zr674   2.409       .  S
O662        C663   1.283       .  A
C663        C698   1.486       .  S
O664       Zr667   2.459       .  S
O664        C666   1.290       .  A
O665       Zr673   2.417       .  S
O665        C666   1.287       .  A
C666        C771   1.487       .  S
Zr667       O668   2.434       .  S
Zr667       O669   2.434       .  S
Zr667       O675   2.368       .  S
Zr667       O676   2.378       .  S
Zr667       O679   2.365       .  S
Zr667       O677   2.379       .  S
O668        H688   0.990       .  S
O668        H693   0.990       .  S
O669        H689   0.990       .  S
Zr670       O671   2.434       .  S
Zr670       O672   2.435       .  S
Zr670       O676   2.380       .  S
Zr670       O675   2.370       .  S
Zr670       O680   2.374       .  S
Zr670       O678   2.368       .  S
O671        H687   0.990       .  S
O672        H686   0.990       .  S
O672        H696   0.990       .  S
Zr673       O676   2.373       .  S
Zr673       O678   2.379       .  S
Zr673       O679   2.373       .  S
Zr674       O675   2.377       .  S
Zr674       O677   2.375       .  S
Zr674       O680   2.370       .  S
O675        H683   0.965       .  S
O678        H682   0.961       .  S
O679        H684   0.959       .  S
C697        C698   1.406       .  A
C697        C702   1.406       .  A
C697        H704   1.084       .  S
C698        C699   1.414       .  A
C699        C700   1.396       .  A
C699        N706   1.432       .  S
C700        C701   1.408       .  A
C700        H705   1.083       .  S
C701        C702   1.416       .  A
C702        N703   1.427       .  S
N703        O707   1.262       .  A
N703        O708   1.262       .  A
N706        O710   1.261       .  A
N706        O709   1.262       .  A
C711        C712   1.399       .  A
C711        C716   1.400       .  A
C711        H718   1.084       .  S
C712        C713   1.410       .  A
C713        C714   1.397       .  A
C713        N720   1.430       .  S
C714        C715   1.406       .  A
C714        H719   1.084       .  S
C715        C716   1.416       .  A
C716        N717   1.426       .  S
N717        O721   1.261       .  A
N717        O722   1.262       .  A
N720        O724   1.262       .  A
N720        O723   1.262       .  A
C725       C1014   1.393       .  A
C725        C730   1.391       .  A
C725        H732   1.085       .  S
C726       C1013   1.383   1_554  A
C726        C727   1.400       .  A
C727        C728   1.402       .  A
C728        C729   1.412       .  A
C728        H733   1.083       .  S
C729       C1018   1.423   1_554  A
C730       C1017   1.415       .  A
C730        N731   1.427       .  S
N731        O735   1.260       .  A
N731        O736   1.262       .  A
N734       O1026   1.262       .  A
N734        O737   1.262       .  A
O738       N1022   1.262       .  A
C739        C740   1.387       .  A
C739        C744   1.391       .  A
C739        H746   1.085       .  S
C740       C1029   1.399   1_554  A
C741       C1028   1.401       .  A
C741        C742   1.404       .  A
C741        N748   1.429       .  S
C742       C1031   1.416       .  A
C742        H747   1.083       .  S
C743       C1030   1.413   1_554  A
C743        C744   1.420       .  A
C744        N745   1.423       .  S
N745        O749   1.262       .  A
N745       O1038   1.261       .  A
N748        O752   1.262       .  A
N748       O1039   1.262       .  A
O750       N1033   1.262       .  A
O751       N1036   1.262       .  A
C753        C754   1.394       .  A
C753        C758   1.395       .  A
C753        H760   1.085       .  S
C754        C755   1.406       .  A
C755        C756   1.390       .  A
C755        N762   1.427       .  S
C756        C757   1.403       .  A
C756        H761   1.083       .  S
C757        C758   1.416       .  A
C758        N759   1.424       .  S
N759        O763   1.262       .  A
N759        O764   1.261       .  A
N762        O766   1.260       .  A
N762        O765   1.262       .  A
C767        C768   1.407       .  A
C767        C772   1.406       .  A
C767        H774   1.083       .  S
C768        C769   1.419       .  A
C769        C770   1.397       .  A
C769        N776   1.429       .  S
C770        C771   1.402       .  A
C770        H775   1.085       .  S
C771        C772   1.413       .  A
C772        N773   1.428       .  S
N773        O777   1.262       .  A
N773        O778   1.262       .  A
N776        O780   1.262       .  A
N776        O779   1.262       .  A
C781        C782   1.407       .  A
C781        C786   1.397       .  A
C781        H788   1.083       .  S
C782       C1071   1.420   1_554  A
C783       C1070   1.421       .  A
C783        C784   1.397       .  A
C783        N790   1.428       .  S
C784       C1073   1.395       .  A
C784        H789   1.085       .  S
C785       C1072   1.398   1_554  A
C785        C786   1.407       .  A
C786        N787   1.428       .  S
N787        O791   1.262       .  A
N787        O792   1.262   1_565  A
N790        O794   1.262       .  A
N790        O793   1.262       .  A
C795        C796   1.397       .  A
C795        C800   1.393       .  A
C795        H802   1.085       .  S
C796        C797   1.407       .  A
C797        C798   1.399       .  A
C797        N804   1.429       .  S
C798        C799   1.406       .  A
C798        H803   1.084       .  S
C799        C800   1.412       .  A
C800        N801   1.428       .  S
N801        O805   1.262       .  A
N801        O806   1.261       .  A
N804        O808   1.262       .  A
N804        O807   1.261       .  A
C809        C810   1.406       .  A
C809        C814   1.389       .  A
C809        H816   1.077       .  S
C810        C811   1.415       .  A
C811        C812   1.392       .  A
C811        N818   1.422       .  S
C812        C813   1.396       .  A
C812        H817   1.085       .  S
C813        C814   1.405       .  A
C814        N815   1.429       .  S
N815        O819   1.262       .  A
N815        O820   1.262       .  A
N818        O822   1.262       .  A
N818        O821   1.262       .  A
C823       C1112   1.394       .  A
C823        C828   1.392       .  A
C823        H830   1.085       .  S
C824       C1111   1.394   1_554  A
C824        C825   1.410       .  A
C825        C826   1.397       .  A
C825        N832   1.429       .  S
C826        C827   1.404       .  A
C826        H831   1.084       .  S
C827       C1116   1.411   1_554  A
C828       C1115   1.416       .  A
C828        N829   1.427       .  S
N829        O833   1.260       .  A
N829       O1122   1.262       .  A
N832        O836   1.262       .  A
N832       O1123   1.262       .  A
O834       N1117   1.262       .  A
O835       N1120   1.262       .  A
C837        C838   1.406       .  A
C837        C842   1.402       .  A
C837        H844   1.084       .  S
C838        C839   1.417       .  A
C839        C840   1.391       .  A
C839        N846   1.428       .  S
C840        C841   1.397       .  A
C840        H845   1.085       .  S
C841        C842   1.411       .  A
C842        N843   1.428       .  S
N843        O847   1.262       .  A
N843        O848   1.262       .  A
N846        O850   1.262       .  A
N846        O849   1.262       .  A
C851        C852   1.402       .  A
C851        C856   1.391       .  A
C851        H858   1.084       .  S
C852        C853   1.416       .  A
C853        C854   1.395       .  A
C853        N860   1.428       .  S
C854        C855   1.397       .  A
C854        H859   1.085       .  S
C855        C856   1.408       .  A
C856        N857   1.428       .  S
N857        O861   1.262       .  A
N857        O862   1.262       .  A
N860        O864   1.262       .  A
N860        O863   1.262       .  A
C865        N870   1.362       .  A
C865       C1115   1.479       .  S
N866        C867   1.355       .  A
C867        N868   1.358   1_556  A
C867       C1140   1.481       .  S
C869        N870   1.359       .  A
C869       C1126   1.490       .  S
C871        N876   1.360       .  A
C871       C1070   1.488       .  S
N872        C873   1.363       .  A
C873        N874   1.357   1_556  A
C873       C1098   1.484       .  S
C875        N876   1.365       .  A
C875       C1087   1.485       .  S
C877        N882   1.365       .  A
C877       C1031   1.500       .  S
N878        C879   1.359       .  A
C879        N880   1.351   1_556  A
C879       C1056   1.485       .  S
C881        N882   1.361       .  A
C881       C1045   1.487       .  S
N883        C888   1.350       .  A
N883        C887   1.354   1_655  A
N883        H915   1.033   1_565  S
N884        C891   1.348       .  A
N884        C892   1.347       .  A
N885        C890   1.348       .  A
N885        C889   1.347       .  A
N885        H916   1.036       .  S
N886        C893   1.348   1_545  A
N886        C894   1.350       .  A
C887        C895   1.385   1_455  A
C888        C904   1.417       .  A
C888        C896   1.388       .  A
C889        C897   1.388       .  A
C890        C905   1.407       .  A
C890        C898   1.388       .  A
C891        C903   1.405   1_545  A
C891        C899   1.385       .  A
C892        C906   1.407       .  A
C892        C900   1.387       .  A
C893        C901   1.389       .  A
C893        C904   1.413       .  A
C894        C902   1.384       .  A
C894        C905   1.406       .  A
C895        C896   1.377       .  A
C896        H908   1.082       .  S
C897        C898   1.372       .  A
C897        H909   1.083       .  S
C898        H910   1.082       .  S
C899        C900   1.374       .  A
C899        H911   1.082       .  S
C900        H912   1.082       .  S
C901        C902   1.371   1_565  A
C901        H913   1.082       .  S
C902        H914   1.082       .  S
C903       C1073   1.485       .  S
C904       C1112   1.476       .  S
C905       C1028   1.474       .  S
C906       C1014   1.469       .  S
C917        N918   1.364       .  A
C917       C1017   1.478       .  S
N918        C919   1.358       .  A
C919        C989   1.494       .  S
N920        C921   1.353   1_554  A
C921        N922   1.354       .  A
C921       C1003   1.483       .  S
O923       Zr935   2.447       .  S
O923        C925   1.290       .  A
O924       Zr961   2.374       .  S
O924        C925   1.276       .  A
C925       C1143   1.466       .  S
O926       Zr938   2.423       .  S
O926        C928   1.282       .  A
O927       Zr962   2.412       .  S
O927        C928   1.286       .  A
C928       C1084   1.466       .  S
O929       Zr938   2.421       .  S
O929        C931   1.282       .  A
O930       Zr961   2.408       .  S
O930        C931   1.285       .  A
C931       C1101   1.472       .  S
O932       Zr935   2.447       .  S
O932        C934   1.287       .  A
O933       Zr962   2.412       .  S
O933        C934   1.286       .  A
C934       C1129   1.481       .  S
Zr935       O936   2.434       .  S
Zr935       O937   2.437       .  S
Zr935       O942   2.378       .  S
Zr935       O965   2.375       .  S
Zr935       O967   2.371       .  S
Zr935       O941   2.269       .  S
O936        H979   0.990       .  S
O937        H978   0.990       .  S
O937        H982   0.990       .  S
Zr938       O939   2.436       .  S
Zr938       O940   2.436       .  S
Zr938       O942   2.378       .  S
Zr938       O966   2.370       .  S
Zr938       O968   2.367       .  S
Zr938       O941   2.273       .  S
O939        H980   0.990       .  S
O939        H983   0.990       .  S
O940        H973   0.990       .  S
O941       Zr961   2.256       .  S
O942       Zr962   2.380       .  S
O942        H969   0.964       .  S
O943       Zr955   2.441       .  S
O943        C945   1.288       .  A
O944       Zr962   2.417       .  S
O944        C945   1.285       .  A
C945       C1042   1.472       .  S
O946       Zr958   2.459       .  S
O946        C948   1.291       .  A
O947       Zr961   2.373       .  S
O947        C948   1.275       .  A
C948       C1000   1.464       .  S
O949       Zr958   2.463       .  S
O949        C951   1.293       .  A
O950       Zr962   2.395       .  S
O950        C951   1.281       .  A
C951        C986   1.482       .  S
O952       Zr955   2.441       .  S
O952        C954   1.286       .  A
O953       Zr961   2.418       .  S
O953        C954   1.285       .  A
C954       C1059   1.476       .  S
Zr955       O956   2.436       .  S
Zr955       O957   2.434       .  S
Zr955       O963   2.371       .  S
Zr955       O964   2.382       .  S
Zr955       O967   2.375       .  S
Zr955       O965   2.380       .  S
O956        H976   0.990       .  S
O956        H981   0.990       .  S
O957        H977   0.990       .  S
Zr958       O959   2.434       .  S
Zr958       O960   2.437       .  S
Zr958       O964   2.382       .  S
Zr958       O963   2.371       .  S
Zr958       O968   2.374       .  S
Zr958       O966   2.371       .  S
O959        H975   0.990       .  S
O960        H974   0.990       .  S
O960        H984   0.990       .  S
Zr961       O964   2.370       .  S
Zr961       O966   2.375       .  S
Zr961       O967   2.375       .  S
Zr962       O963   2.377       .  S
Zr962       O965   2.379       .  S
Zr962       O968   2.375       .  S
O963        H971   0.973       .  S
O966        H970   0.970       .  S
O967        H972   0.961       .  S
C985        C986   1.403       .  A
C985        C990   1.403       .  A
C985        H992   1.084       .  S
C986        C987   1.414       .  A
C987        C988   1.395       .  A
C987        N994   1.431       .  S
C988        C989   1.407       .  A
C988        H993   1.083       .  S
C989        C990   1.418       .  A
C990        N991   1.428       .  S
N991        O995   1.262       .  A
N991        O996   1.262       .  A
N994        O998   1.262       .  A
N994        O997   1.262       .  A
C999       C1000   1.392       .  A
C999       C1004   1.393       .  A
C999       H1006   1.085       .  S
C1000      C1001   1.411       .  A
C1001      C1002   1.394       .  A
C1001      N1008   1.430       .  S
C1002      C1003   1.406       .  A
C1002      H1007   1.084       .  S
C1003      C1004   1.417       .  A
C1004      N1005   1.422       .  S
N1005      O1009   1.262       .  A
N1005      O1010   1.262       .  A
N1008      O1012   1.262       .  A
N1008      O1011   1.262       .  A
C1013      C1018   1.386       .  A
C1013      H1020   1.085       .  S
C1014      C1015   1.402       .  A
C1015      C1016   1.398       .  A
C1016      C1017   1.409       .  A
C1016      H1021   1.083       .  S
C1018      N1019   1.420       .  S
N1019      O1023   1.262       .  A
N1019      O1024   1.262       .  A
N1022      O1025   1.262       .  A
C1027      C1028   1.387       .  A
C1027      C1032   1.393       .  A
C1027      H1034   1.085       .  S
C1029      C1030   1.399       .  A
C1029      N1036   1.429       .  S
C1030      H1035   1.083       .  S
C1031      C1032   1.422       .  A
C1032      N1033   1.422       .  S
N1033      O1037   1.262       .  A
N1036      O1040   1.262       .  A
C1041      C1042   1.398       .  A
C1041      C1046   1.399       .  A
C1041      H1048   1.085       .  S
C1042      C1043   1.407       .  A
C1043      C1044   1.396       .  A
C1043      N1050   1.427       .  S
C1044      C1045   1.405       .  A
C1044      H1049   1.083       .  S
C1045      C1046   1.416       .  A
C1046      N1047   1.424       .  S
N1047      O1051   1.262       .  A
N1047      O1052   1.262       .  A
N1050      O1054   1.261       .  A
N1050      O1053   1.262       .  A
C1055      C1056   1.404       .  A
C1055      C1060   1.399       .  A
C1055      H1062   1.084       .  S
C1056      C1057   1.418       .  A
C1057      C1058   1.398       .  A
C1057      N1064   1.429       .  S
C1058      C1059   1.401       .  A
C1058      H1063   1.085       .  S
C1059      C1060   1.410       .  A
C1060      N1061   1.428       .  S
N1061      O1065   1.262       .  A
N1061      O1066   1.262       .  A
N1064      O1068   1.262       .  A
N1064      O1067   1.262       .  A
C1069      C1070   1.404       .  A
C1069      C1074   1.401       .  A
C1069      H1076   1.084       .  S
C1071      C1072   1.400       .  A
C1071      N1078   1.428       .  S
C1072      H1077   1.084       .  S
C1073      C1074   1.410       .  A
C1074      N1075   1.428       .  S
N1075      O1079   1.262       .  A
N1075      O1080   1.262   1_565  A
N1078      O1082   1.262       .  A
N1078      O1081   1.262       .  A
C1083      C1084   1.393       .  A
C1083      C1088   1.390       .  A
C1083      H1090   1.085       .  S
C1084      C1085   1.409       .  A
C1085      C1086   1.401       .  A
C1085      N1092   1.428       .  S
C1086      C1087   1.409       .  A
C1086      H1091   1.083       .  S
C1087      C1088   1.416       .  A
C1088      N1089   1.428       .  S
N1089      O1093   1.262       .  A
N1089      O1094   1.262       .  A
N1092      O1096   1.262       .  A
N1092      O1095   1.262       .  A
C1097      C1098   1.406       .  A
C1097      C1102   1.395       .  A
C1097      H1104   1.082       .  S
C1098      C1099   1.417       .  A
C1099      C1100   1.390       .  A
C1099      N1106   1.425       .  S
C1100      C1101   1.398       .  A
C1100      H1105   1.085       .  S
C1101      C1102   1.411       .  A
C1102      N1103   1.428       .  S
N1103      O1107   1.262       .  A
N1103      O1108   1.262       .  A
N1106      O1110   1.262       .  A
N1106      O1109   1.262       .  A
C1111      C1116   1.389       .  A
C1111      H1118   1.085       .  S
C1112      C1113   1.407       .  A
C1113      C1114   1.397       .  A
C1113      N1120   1.428       .  S
C1114      C1115   1.406       .  A
C1114      H1119   1.084       .  S
C1116      N1117   1.426       .  S
N1117      O1121   1.260       .  A
N1120      O1124   1.262       .  A
C1125      C1126   1.407       .  A
C1125      C1130   1.402       .  A
C1125      H1132   1.083       .  S
C1126      C1127   1.418       .  A
C1127      C1128   1.395       .  A
C1127      N1134   1.429       .  S
C1128      C1129   1.401       .  A
C1128      H1133   1.085       .  S
C1129      C1130   1.412       .  A
C1130      N1131   1.428       .  S
N1131      O1135   1.262       .  A
N1131      O1136   1.262       .  A
N1134      O1138   1.262       .  A
N1134      O1137   1.262       .  A
C1139      C1140   1.403       .  A
C1139      C1144   1.387       .  A
C1139      H1146   1.077       .  S
C1140      C1141   1.417       .  A
C1141      C1142   1.394       .  A
C1141      N1148   1.425       .  S
C1142      C1143   1.397       .  A
C1142      H1147   1.084       .  S
C1143      C1144   1.411       .  A
C1144      N1145   1.430       .  S
N1145      O1149   1.262       .  A
N1145      O1150   1.262       .  A
N1148      O1152   1.262       .  A
N1148      O1151   1.261       .  A
