geometry optimzed in LAMMPS
_audit_creation_date              2020-11-30 
_audit_creation_method            'lammps2cif' 
_symmetry_space_group_name_H-M    'P1' 
_symmetry_Int_Tables_number       1 
_symmetry_cell_setting            triclinic 
loop_ 
_symmetry_equiv_pos_as_xyz 
  x,y,z 
_cell_length_a                    25.77855258 
_cell_length_b                    26.113553563811955 
_cell_length_c                    36.68034947830482 
_cell_angle_alpha                 89.47571296877116 
_cell_angle_beta                  90.077759074926 
_cell_angle_gamma                 89.96952511754887 
loop_ 
_atom_site_label 
_atom_site_type_symbol 
_atom_site_fract_x 
_atom_site_fract_y 
_atom_site_fract_z 
_atom_site_charge 
C1          C  0.71419084  0.72820225  0.99608360     0.81500
N2          N  0.69606779  0.71005447  0.46354063    -0.76800
C3          C  0.66213608  0.67018421  0.46307343     0.84000
N4          N  0.64566604  0.64909202  0.49496444    -0.76700
C5          C  0.66260787  0.66758714  0.02743301     0.84100
N6          N  0.69640942  0.70735382  0.02773067    -0.78400
C7          C  0.21865914  0.73472796  0.99439640     0.81500
N8          N  0.23389881  0.71149673  0.46222542    -0.76800
C9          C  0.27092078  0.67444612  0.46223542     0.84000
N10         N  0.28989753  0.65659432  0.49436970    -0.76700
C11         C  0.27594923  0.67988419  0.02631606     0.84100
N12         N  0.23887087  0.71681624  0.02635206    -0.78400
C13         C  0.71342178  0.23397267  0.99665566     0.81500
N14         N  0.69576277  0.25377647  0.02848210    -0.76800
C15         C  0.65646320  0.28840946  0.02851922     0.84000
N16         N  0.63564592  0.30371602  0.49603409    -0.76700
C17         C  0.65384765  0.28507772  0.46411157     0.84100
N18         N  0.69325014  0.25055388  0.46453440    -0.78400
N19         N  0.96246906  0.90297272  0.99990519    -0.35300
N20         N  0.04355224  0.98120892  0.99708018    -0.55900
N21         N  0.96448147  0.06041599  0.00143792    -0.35300
N22         N  0.88334019  0.98243821  0.99848574    -0.55900
C23         C  0.00430222  0.87406090  0.99163104     0.28300
C24         C  0.91972059  0.87476378  0.99271826     0.28300
C25         C  0.00689813  0.08874006  0.99334274     0.28300
C26         C  0.92248470  0.08943441  0.99342495     0.28300
C27         C  0.07327329  0.93920150  0.00239173     0.36900
C28         C  0.07428525  0.02203541  0.00357236     0.36900
C29         C  0.85238941  0.94134131  0.00379657     0.36900
C30         C  0.85355662  0.02416565  0.00405776     0.36900
C31         C  0.98796371  0.82662726  0.97937550    -0.20600
C32         C  0.93459634  0.82703997  0.98011466    -0.20600
C33         C  0.99167310  0.13649228  0.98038061    -0.20600
C34         C  0.93837705  0.13695243  0.98047555    -0.20600
C35         C  0.12326318  0.95342205  0.01197657    -0.21600
C36         C  0.12387475  0.00596766  0.01276812    -0.21600
C37         C  0.80253701  0.95701827  0.01241353    -0.21600
C38         C  0.80326986  0.00958185  0.01254965    -0.21600
C39         C  0.05679887  0.88832148  0.99656491    -0.17000
C40         C  0.86771962  0.89000769  0.99866680    -0.17000
C41         C  0.87023428  0.07520425  0.99905571    -0.17000
C42         C  0.05896604  0.07359334  0.99891396    -0.17000
H43         H  0.01200419  0.79487607  0.97096036     0.15900
H44         H  0.90959554  0.79568649  0.97232922     0.15900
H45         H  0.01640291  0.16783407  0.97180972     0.15900
H46         H  0.91408388  0.16873788  0.97202346     0.15900
H47         H  0.15596950  0.92855129  0.01759142     0.14200
H48         H  0.15711062  0.02962332  0.01905525     0.14200
H49         H  0.76901181  0.93311845  0.01761121     0.14200
H50         H  0.77041822  0.03423845  0.01784707     0.14200
H51         H  0.96315470  0.93890311  0.01174687     0.27500
H52         H  0.96420348  0.02444323  0.01372354     0.27500
C53         C  0.21240736  0.23558693  0.99540083     0.81500
N54         N  0.22808996  0.25634894  0.46359993    -0.76800
C55         C  0.26300184  0.29526761  0.46297449     0.84000
N56         N  0.27935937  0.31601407  0.49468620    -0.76700
C57         C  0.26489341  0.29483420  0.02657583     0.84100
N58         N  0.22886776  0.25701455  0.02704879    -0.78400
C59         C  0.57274665  0.37219433  0.33091966     0.43800
N60         N  0.52401714  0.39089619  0.28542714     0.02700
C61         C  0.52550577  0.60943737  0.17809759    -0.05200
H62         H  0.49913917  0.64187967  0.31931922     0.08200
C63         C  0.33441250  0.54058701  0.31231683    -0.05600
Co64       Co  0.55868876  0.48572809  0.24657016     0.74200
N65         N  0.51660827  0.57678600  0.28568773    -0.24700
Co66       Co  0.45970490  0.57646261  0.24557239     0.74100
C67         C  0.35190912  0.58705747  0.33026590     0.43900
N68         N  0.37129812  0.42098052  0.28376964     0.02300
N69         N  0.40128281  0.57240283  0.28471349     0.02400
N70         N  0.58826134  0.54869221  0.17915505    -0.45600
H71         H  0.62496320  0.44240572  0.32070462     0.08100
N72         N  0.55386383  0.54210180  0.28654161     0.02700
N73         N  0.40275684  0.57418363  0.20546850     0.02400
C74         C  0.35445040  0.59153228  0.15966368     0.44000
N75         N  0.40902918  0.38688301  0.28377019    -0.24200
C76         C  0.59633295  0.42188746  0.18015693    -0.05100
N77         N  0.53051206  0.35701137  0.31215391    -0.45300
N78         N  0.39562913  0.60815430  0.17889129    -0.45500
C79         C  0.57826156  0.37608324  0.16155732     0.43800
N80         N  0.55549556  0.54284573  0.20663011     0.02700
N81         N  0.41060140  0.38888537  0.20409526    -0.24200
N82         N  0.55908537  0.42771913  0.28589553    -0.24700
N83         N  0.37253759  0.42270449  0.20390438     0.02300
H84         H  0.42875311  0.32493255  0.16976605     0.08200
H85         H  0.30406738  0.51994855  0.16934445     0.08200
N86         N  0.51817078  0.57752033  0.20643733    -0.24800
N87         N  0.36716022  0.53469868  0.28433719    -0.24400
N88         N  0.52641479  0.39276888  0.20560424     0.02700
C89         C  0.57001902  0.59084158  0.33189720     0.44100
C90         C  0.40235094  0.35476340  0.31204655    -0.06300
N91         N  0.36854171  0.53660234  0.20485139    -0.24400
H92         H  0.30198875  0.51592762  0.31886457     0.08200
N93         N  0.58659535  0.54899182  0.31391992    -0.45600
H94         H  0.42803791  0.32352986  0.31914382     0.08200
C95         C  0.35692309  0.37515757  0.15771080     0.43900
C96         C  0.59195251  0.41895982  0.31361064    -0.05100
Co97       Co  0.46748181  0.38871020  0.24464723     0.73800
N98         N  0.33842996  0.41406731  0.31110357    -0.45300
C99         C  0.57183872  0.59001712  0.16011625     0.44200
N100        N  0.53469168  0.36025489  0.17872159    -0.45300
Co101      Co  0.36861318  0.47866874  0.24418599     0.73900
C102        C  0.33642365  0.54414334  0.17663559    -0.05600
C103        C  0.52363944  0.60945390  0.31321734    -0.05200
N104        N  0.56163905  0.42935823  0.20683932    -0.24700
N105        N  0.39340764  0.60485697  0.31171540    -0.45500
H106        H  0.50090137  0.64143286  0.17067050     0.08200
C107        C  0.40410521  0.35719887  0.17594910    -0.05600
Cl108      Cl  0.46361827  0.48234715  0.24522825    -0.48600
C109        C  0.35538310  0.37281857  0.33019917     0.43900
H110        H  0.62968412  0.44573291  0.17444809     0.08100
N111        N  0.33939832  0.41576394  0.17669179    -0.45300
C112        C  0.25585227  0.33834626  0.08688435     0.24900
C113        C  0.28687783  0.31412805  0.06075590    -0.23200
C114        C  0.34025845  0.30919701  0.06685692     0.19800
C115        C  0.36272998  0.32875497  0.09837155     0.24900
C116        C  0.33237844  0.35420066  0.12442035    -0.23100
C117        C  0.27857701  0.35904620  0.11828188     0.19800
F118        F  0.24791601  0.38314985  0.14281706    -0.13100
F119        F  0.20390911  0.34290484  0.08159203    -0.15500
F120        F  0.41459848  0.32391702  0.10266781    -0.15500
F121        F  0.37066800  0.28458112  0.04237839    -0.13100
C122        C  0.27421364  0.36414979  0.41635907     0.24900
C123        C  0.28461059  0.31404889  0.42831541    -0.23200
C124        C  0.31777780  0.28294323  0.40791490     0.19800
C125        C  0.34097411  0.30190509  0.37608712     0.24900
C126        C  0.33070176  0.35226035  0.36381563    -0.23100
C127        C  0.29654088  0.38297533  0.38417463     0.19800
F128        F  0.28533068  0.43157722  0.37338098    -0.13100
F129        F  0.24204418  0.39471454  0.43579192    -0.15500
F130        F  0.37278317  0.27045166  0.35718676    -0.15500
F131        F  0.32877426  0.23454208  0.41935859    -0.13100
C132        C  0.13341417  0.11952637  0.46916318     0.24900
C133        C  0.09947232  0.11404740  0.99848331    -0.23200
C134        C  0.10146647  0.15022827  0.02648139     0.19800
C135        C  0.13812930  0.18961218  0.02550158     0.24900
C136        C  0.17343633  0.19374638  0.99627196    -0.23100
C137        C  0.16884757  0.16009032  0.46809185     0.19800
F138        F  0.20160973  0.16378264  0.43924218    -0.13100
F139        F  0.13174789  0.08605239  0.44107882    -0.15500
F140        F  0.13807002  0.22439934  0.05279020    -0.15500
F141        F  0.06747854  0.14755743  0.05468527    -0.13100
C142        C  0.82354283  0.14751291  0.02864398     0.24900
C143        C  0.83054227  0.11617691  0.99826494    -0.23200
C144        C  0.80084083  0.12386222  0.46749538     0.19800
C145        C  0.76384219  0.16297678  0.46634676     0.24900
C146        C  0.75484265  0.19425997  0.99683376    -0.23100
C147        C  0.78605968  0.18619295  0.02804710     0.19800
F148        F  0.78092331  0.21595225  0.05797972    -0.13100
F149        F  0.85292884  0.14031228  0.05901360    -0.15500
F150        F  0.73547722  0.16912905  0.43540412    -0.15500
F151        F  0.80774739  0.09385998  0.43784725    -0.13100
C152        C  0.58373744  0.31326425  0.06928969     0.24900
C153        C  0.63730429  0.30961858  0.06313179    -0.23200
C154        C  0.67194599  0.32747262  0.08985508     0.19800
C155        C  0.65302605  0.34980460  0.12185171     0.24900
C156        C  0.59926376  0.35303944  0.12801061    -0.23100
C157        C  0.56501528  0.33428974  0.10154849     0.19800
F158        F  0.51313472  0.33801478  0.10638746    -0.13100
F159        F  0.54940648  0.29570637  0.04423488    -0.15500
F160        F  0.68719652  0.36744716  0.14697160    -0.15500
F161        F  0.72398579  0.32465084  0.08451464    -0.13100
C162        C  0.57883610  0.31026355  0.42436227     0.24900
C163        C  0.63263613  0.30417027  0.42918172    -0.23200
C164        C  0.66639043  0.31850029  0.40081311     0.19800
C165        C  0.64681249  0.34008007  0.36859366     0.24900
C166        C  0.59313298  0.34680096  0.36397861    -0.23100
C167        C  0.55918893  0.33073371  0.39174517     0.19800
F168        F  0.50713865  0.33678245  0.38786791    -0.13100
F169        F  0.54532147  0.29626321  0.45118388    -0.15500
F170        F  0.68031417  0.35395314  0.34174218    -0.15500
F171        F  0.71853157  0.31366813  0.40492055    -0.13100
C172        C  0.13060149  0.84239829  0.46523336     0.24900
C173        C  0.09701652  0.84768930  0.99530951    -0.23200
C174        C  0.10226605  0.81291685  0.02442801     0.19800
C175        C  0.14164665  0.77607235  0.02416701     0.24900
C176        C  0.17652154  0.77341599  0.99461711    -0.23100
C177        C  0.16884268  0.80439045  0.46474068     0.19800
F178        F  0.20137643  0.80228716  0.43572093    -0.13100
F179        F  0.12636734  0.87535295  0.43654448    -0.15500
F180        F  0.14494093  0.74249689  0.05256354    -0.15500
F181        F  0.06950944  0.81517871  0.05333261    -0.13100
C182        C  0.32275713  0.58362618  0.09612598     0.24900
C183        C  0.33529123  0.61496464  0.12568919    -0.23200
C184        C  0.32876690  0.66826539  0.12255961     0.19800
C185        C  0.30852177  0.68976661  0.09041233     0.24900
C186        C  0.29614438  0.65821986  0.06074237    -0.23100
C187        C  0.30381462  0.60506196  0.06385507     0.19800
F188        F  0.29171074  0.57351996  0.03588389    -0.13100
F189        F  0.32995754  0.53216278  0.09815062    -0.15500
F190        F  0.30199023  0.74129472  0.08803024    -0.15500
F191        F  0.34068114  0.69923935  0.15090796    -0.13100
C192        C  0.32348379  0.66293898  0.36622061     0.24900
C193        C  0.33086046  0.60976484  0.36372677    -0.23200
C194        C  0.31784592  0.57817112  0.39347905     0.19800
C195        C  0.29790036  0.59933470  0.42533600     0.24900
C196        C  0.29001838  0.65248461  0.42785714    -0.23100
C197        C  0.30257203  0.68414053  0.39793549     0.19800
F198        F  0.29607469  0.73564574  0.39981102    -0.13100
F199        F  0.33568693  0.69419407  0.33772302    -0.15500
F200        F  0.28561193  0.56769046  0.45360949    -0.15500
F201        F  0.32616907  0.52690531  0.39221102    -0.13100
C202        C  0.79515954  0.84400651  0.46806015     0.24900
C203        C  0.82699236  0.84986694  0.99842816    -0.23200
C204        C  0.82135474  0.81682618  0.02846770     0.19800
C205        C  0.78455780  0.77755701  0.02784864     0.24900
C206        C  0.75252815  0.77065480  0.99699885    -0.23100
C207        C  0.75821092  0.80480600  0.46700303     0.19800
F208        F  0.72769190  0.80072340  0.43698248    -0.13100
F209        F  0.79998132  0.87636314  0.43908554    -0.15500
F210        F  0.78138081  0.74561488  0.05718146    -0.15500
F211        F  0.85167881  0.82268145  0.05844085    -0.13100
C212        C  0.63670459  0.59436380  0.06783051     0.24900
C213        C  0.64130196  0.64740825  0.06188439    -0.23200
C214        C  0.62384147  0.68137131  0.08872780     0.19800
C215        C  0.60070998  0.66264522  0.12056426     0.24900
C216        C  0.59630440  0.60966103  0.12660190    -0.23100
C217        C  0.61519748  0.57559439  0.10029310     0.19800
F218        F  0.61140964  0.52417853  0.10553481    -0.13100
F219        F  0.65371473  0.56077105  0.04244979    -0.15500
F220        F  0.58354614  0.69634122  0.14581106    -0.15500
F221        F  0.62770333  0.73280013  0.08362671    -0.13100
C222        C  0.61892839  0.57858608  0.39004407     0.24900
C223        C  0.59484508  0.61181094  0.36485030    -0.23200
C224        C  0.59461413  0.66481797  0.37161356     0.19800
C225        C  0.61857214  0.68415530  0.40289276     0.24900
C226        C  0.64150467  0.65067392  0.42841568    -0.23100
C227        C  0.64141590  0.59780403  0.42178474     0.19800
F228        F  0.66338893  0.56472768  0.44605589    -0.13100
F229        F  0.61904128  0.52721768  0.38461961    -0.15500
F230        F  0.61762376  0.73537641  0.40894996    -0.15500
F231        F  0.57175976  0.69802297  0.34784976    -0.13100
C232        C  0.71386515  0.72857821  0.49580806     0.81500
N233        N  0.69667114  0.70949330  0.96381473    -0.76800
C234        C  0.66292504  0.66951404  0.96329588     0.84000
N235        N  0.64629358  0.64847129  0.99515243    -0.76700
C236        C  0.66227113  0.66806644  0.52720574     0.84100
N237        N  0.69618079  0.70769430  0.52744950    -0.78400
C238        C  0.21573650  0.73045804  0.49423852     0.81500
N239        N  0.23639497  0.71567877  0.96229203    -0.76800
C240        C  0.27331269  0.67856043  0.96216658     0.84000
N241        N  0.29255354  0.66065025  0.99419643    -0.76700
C242        C  0.27281803  0.67568187  0.52640627     0.84100
N243        N  0.23565878  0.71254063  0.52627782    -0.78400
C244        C  0.71455536  0.23442245  0.49656395     0.81500
N245        N  0.69662609  0.25422064  0.52832057    -0.76800
C246        C  0.65726573  0.28877099  0.52817064     0.84000
N247        N  0.63461850  0.30340812  0.99642134    -0.76700
C248        C  0.65252912  0.28469476  0.96441379     0.84100
N249        N  0.69188911  0.25013245  0.96471833    -0.78400
N250        N  0.96282825  0.90253007  0.49989842    -0.35300
N251        N  0.04393891  0.98063473  0.49654491    -0.55900
N252        N  0.96466853  0.05985974  0.50160467    -0.35300
N253        N  0.88359349  0.98206419  0.49923093    -0.55900
C254        C  0.00452274  0.87344890  0.49159077     0.28300
C255        C  0.91994862  0.87431993  0.49310101     0.28300
C256        C  0.00695760  0.08815184  0.49319510     0.28300
C257        C  0.92257429  0.08886981  0.49379770     0.28300
C258        C  0.07386906  0.93861973  0.50135065     0.36900
C259        C  0.07476330  0.02154366  0.50264519     0.36900
C260        C  0.85276076  0.94094504  0.50467123     0.36900
C261        C  0.85385047  0.02373527  0.50506698     0.36900
C262        C  0.98794777  0.82588356  0.47973041    -0.20600
C263        C  0.93461026  0.82641352  0.48071963    -0.20600
C264        C  0.99156603  0.13585135  0.48021734    -0.20600
C265        C  0.93829490  0.13631304  0.48061907    -0.20600
C266        C  0.12412788  0.95293759  0.51013395    -0.21600
C267        C  0.12466389  0.00552144  0.51100423    -0.21600
C268        C  0.80302090  0.95654786  0.51368697    -0.21600
C269        C  0.80370960  0.00911137  0.51391276    -0.21600
C270        C  0.05714130  0.88762746  0.49609625    -0.17000
C271        C  0.86800867  0.88968254  0.49919846    -0.17000
C272        C  0.87040139  0.07473477  0.49983131    -0.17000
C273        C  0.05909710  0.07314339  0.49856652    -0.17000
H274        H  0.01181351  0.79396803  0.47138450     0.15900
H275        H  0.90949191  0.79498999  0.47326774     0.15900
H276        H  0.01618308  0.16716419  0.47143149     0.15900
H277        H  0.91391000  0.16806947  0.47224662     0.15900
H278        H  0.15702966  0.92811160  0.51524230     0.14200
H279        H  0.15803458  0.02922840  0.51683100     0.14200
H280        H  0.76958633  0.93259651  0.51905699     0.14200
H281        H  0.77091920  0.03374083  0.51944815     0.14200
H282        H  0.96369837  0.93863006  0.51150023     0.27500
H283        H  0.96461695  0.02395101  0.51401922     0.27500
C284        C  0.20851256  0.23889014  0.49585107     0.81500
N285        N  0.23249651  0.25252452  0.96315954    -0.76800
C286        C  0.26805384  0.29090126  0.96258409     0.84000
N287        N  0.28433902  0.31167882  0.99431297    -0.76700
C288        C  0.26043396  0.29873150  0.52700763     0.84100
N289        N  0.22497240  0.26033283  0.52752261    -0.78400
C290        C  0.57272966  0.37224465  0.83070705     0.43800
N291        N  0.52475711  0.39078065  0.78471480     0.02700
C292        C  0.52582252  0.61047312  0.67838751    -0.05200
H293        H  0.49995633  0.64151774  0.81984096     0.08200
C294        C  0.33565278  0.54110950  0.81322683    -0.05600
Co295      Co  0.55924060  0.48610243  0.74625411     0.74200
N296        N  0.51744443  0.57685502  0.78582723    -0.24700
Co297      Co  0.46030033  0.57688911  0.74586427     0.74100
C298        C  0.35325775  0.58778318  0.83101070     0.43900
N299        N  0.37252464  0.42092828  0.78404350     0.02300
N300        N  0.40229158  0.57272502  0.78527458     0.02400
N301        N  0.58865775  0.54981922  0.67917058    -0.45600
H302        H  0.62491025  0.44260231  0.82083414     0.08100
N303        N  0.55465495  0.54211056  0.78650538     0.02700
N304        N  0.40296091  0.57466534  0.70592026     0.02400
C305        C  0.35447600  0.59117647  0.66003190     0.44000
N306        N  0.41002798  0.38659851  0.78332640    -0.24200
C307        C  0.59591519  0.42328275  0.67902969    -0.05100
N308        N  0.53082360  0.35701775  0.81158965    -0.45300
N309        N  0.39574907  0.60819136  0.67904054    -0.45500
C310        C  0.57751681  0.37778121  0.66015412     0.43800
N311        N  0.55591819  0.54366489  0.70662027     0.02700
N312        N  0.41064281  0.38975436  0.70373898    -0.24200
N313        N  0.55976404  0.42765286  0.78538795    -0.24700
N314        N  0.37251867  0.42349472  0.70420797     0.02300
H315        H  0.42811359  0.32639216  0.66861251     0.08200
H316        H  0.30427605  0.51971191  0.67032790     0.08200
N317        N  0.51853973  0.57827720  0.70658379    -0.24800
N318        N  0.36822868  0.53497518  0.78515141    -0.24400
N319        N  0.52646713  0.39370973  0.70478363     0.02700
C320        C  0.57086502  0.59036741  0.83211030     0.44100
C321        C  0.40346160  0.35359727  0.81107654    -0.06300
N322        N  0.36872737  0.53708876  0.70563407    -0.24400
H323        H  0.30313520  0.51659357  0.81982039     0.08200
N324        N  0.58741546  0.54869775  0.81390996    -0.45600
H325        H  0.42885993  0.32186817  0.81758673     0.08200
C326        C  0.35597255  0.37671515  0.65776344     0.43900
C327        C  0.59219447  0.41896795  0.81339892    -0.05100
Co328      Co  0.46799646  0.38907290  0.74402227     0.73800
N329        N  0.33993187  0.41338338  0.81145318    -0.45300
C330        C  0.57219787  0.59128975  0.66031108     0.44200
N331        N  0.53430619  0.36163091  0.67758366    -0.45300
Co332      Co  0.36924225  0.47906598  0.74481286     0.73900
C333        C  0.33650269  0.54416543  0.67745642    -0.05600
C334        C  0.52449396  0.60920089  0.81353448    -0.05200
N335        N  0.56172473  0.43025154  0.70609610    -0.24700
N336        N  0.39457808  0.60538650  0.81216942    -0.45500
H337        H  0.50117401  0.64251196  0.67113182     0.08200
C338        C  0.40360588  0.35854096  0.67535051    -0.05600
Cl339      Cl  0.46419167  0.48275166  0.74522753    -0.48600
C340        C  0.35691696  0.37140348  0.82970305     0.43900
H341        H  0.62910986  0.44730205  0.67324590     0.08100
N342        N  0.33883143  0.41694322  0.67728358    -0.45300
C343        C  0.25293057  0.34076691  0.58805516     0.24900
C344        C  0.28328886  0.31745371  0.56112742    -0.23200
C345        C  0.33693014  0.31290455  0.56633162     0.19800
C346        C  0.36029398  0.33195350  0.59771234     0.24900
C347        C  0.33054902  0.35631086  0.62460536    -0.23100
C348        C  0.27650528  0.36078969  0.61938843     0.19800
F349        F  0.24644469  0.38393220  0.64474893    -0.13100
F350        F  0.20081329  0.34515606  0.58360978    -0.15500
F351        F  0.41240943  0.32789982  0.60102157    -0.15500
F352        F  0.36676052  0.28921960  0.54105152    -0.13100
C353        C  0.28193347  0.36208848  0.91826583     0.24900
C354        C  0.28895845  0.31045742  0.92790789    -0.23200
C355        C  0.31778135  0.27852038  0.90502151     0.19800
C356        C  0.34003659  0.29820047  0.87305609     0.24900
C357        C  0.33302502  0.35005152  0.86321962    -0.23100
C358        C  0.30320021  0.38158819  0.88598121     0.19800
F359        F  0.29541798  0.43161271  0.87741982    -0.13100
F360        F  0.25394706  0.39352572  0.94002426    -0.15500
F361        F  0.36758609  0.26615060  0.85154096    -0.15500
F362        F  0.32563474  0.22862054  0.91417225    -0.13100
C363        C  0.13456167  0.11776532  0.96936838     0.24900
C364        C  0.09915074  0.11404522  0.49860496    -0.23200
C365        C  0.10067838  0.14962423  0.52702839     0.19800
C366        C  0.13618637  0.19005997  0.52618706     0.24900
C367        C  0.17073261  0.19592246  0.49665392    -0.23100
C368        C  0.17118331  0.15727589  0.96817121     0.19800
F369        F  0.20488017  0.15919913  0.93977835    -0.13100
F370        F  0.13281602  0.08338400  0.94184831    -0.15500
F371        F  0.13558505  0.22426058  0.55384515    -0.15500
F372        F  0.06709526  0.14553550  0.55539671    -0.13100
C373        C  0.82369703  0.14723648  0.52920840     0.24900
C374        C  0.83068966  0.11569472  0.49893713    -0.23200
C375        C  0.80034935  0.12422629  0.96697440     0.19800
C376        C  0.76293499  0.16296052  0.96610931     0.24900
C377        C  0.75575315  0.19448619  0.49695851    -0.23100
C378        C  0.78659934  0.18627619  0.52833592     0.19800
F379        F  0.78150979  0.21628159  0.55814850    -0.13100
F380        F  0.85277483  0.13995327  0.55971359    -0.15500
F381        F  0.73413998  0.16890852  0.93534470    -0.15500
F382        F  0.80724871  0.09441221  0.93722828    -0.13100
C383        C  0.58420511  0.31088845  0.56931963     0.24900
C384        C  0.63773079  0.30996547  0.56258945    -0.23200
C385        C  0.67193127  0.33074217  0.58841840     0.19800
C386        C  0.65256347  0.35349440  0.62009250     0.24900
C387        C  0.59882953  0.35423992  0.62686166    -0.23100
C388        C  0.56504109  0.33220050  0.60136240     0.19800
F389        F  0.51314262  0.33262995  0.60695779    -0.13100
F390        F  0.55044295  0.29039895  0.54503343    -0.15500
F391        F  0.68638702  0.37387679  0.64435218    -0.15500
F392        F  0.72391187  0.33034594  0.58246096    -0.13100
C393        C  0.57773802  0.30963514  0.92418594     0.24900
C394        C  0.63151339  0.30405337  0.92944805    -0.23200
C395        C  0.66555044  0.31884088  0.90136394     0.19800
C396        C  0.64632138  0.34052144  0.86906736     0.24900
C397        C  0.59267635  0.34684909  0.86399202    -0.23100
C398        C  0.55842270  0.33017994  0.89143951     0.19800
F399        F  0.50637253  0.33557410  0.88710455    -0.13100
F400        F  0.54394773  0.29488963  0.95063682    -0.15500
F401        F  0.68016901  0.35477318  0.84253634    -0.15500
F402        F  0.71765620  0.31419942  0.90578920    -0.13100
C403        C  0.13103649  0.84475231  0.96557193     0.24900
C404        C  0.09701101  0.84655949  0.49512943    -0.23200
C405        C  0.10143612  0.81167977  0.52427473     0.19800
C406        C  0.13963174  0.77362374  0.52391297     0.24900
C407        C  0.17424381  0.76988263  0.49427966    -0.23100
C408        C  0.17041395  0.80791768  0.96515666     0.19800
F409        F  0.20339525  0.80701239  0.93634527    -0.13100
F410        F  0.12627552  0.87795419  0.93706374    -0.15500
F411        F  0.14197286  0.73990780  0.55227435    -0.15500
F412        F  0.06884838  0.81483373  0.55322637    -0.13100
C413        C  0.32224137  0.58146618  0.59675114     0.24900
C414        C  0.33502451  0.61366280  0.62581745    -0.23200
C415        C  0.32768436  0.66677617  0.62215794     0.19800
C416        C  0.30633399  0.68724443  0.59003693     0.24900
C417        C  0.29360429  0.65486500  0.56090755    -0.23100
C418        C  0.30208239  0.60188949  0.56450629     0.19800
F419        F  0.28962346  0.56957076  0.53706435    -0.13100
F420        F  0.33027724  0.53015143  0.59925656    -0.15500
F421        F  0.29907851  0.73862726  0.58712731    -0.15500
F422        F  0.33981933  0.69855605  0.64999574    -0.13100
C423        C  0.32922439  0.66505983  0.86734569     0.24900
C424        C  0.33197589  0.61147256  0.86417033    -0.23200
C425        C  0.31443355  0.58048823  0.89310117     0.19800
C426        C  0.29455802  0.60251086  0.92467361     0.24900
C427        C  0.29145322  0.65599453  0.92780912    -0.23100
C428        C  0.30842340  0.68718121  0.89879270     0.19800
F429        F  0.30648184  0.73897168  0.90142470    -0.13100
F430        F  0.34614956  0.69595100  0.83987694    -0.15500
F431        F  0.27790664  0.57146857  0.95216350    -0.15500
F432        F  0.31855949  0.52882447  0.89151403    -0.13100
C433        C  0.79464524  0.84400733  0.96797326     0.24900
C434        C  0.82715649  0.84972868  0.49871215    -0.23200
C435        C  0.82100765  0.81679239  0.52873144     0.19800
C436        C  0.78409614  0.77767345  0.52789300     0.24900
C437        C  0.75242095  0.77083510  0.49683562    -0.23100
C438        C  0.75785571  0.80465385  0.96713489     0.19800
F439        F  0.72706486  0.80040668  0.93726261    -0.13100
F440        F  0.79900163  0.87634150  0.93895035    -0.15500
F441        F  0.78041382  0.74587215  0.55727202    -0.15500
F442        F  0.85092594  0.82262471  0.55890892    -0.13100
C443        C  0.63724199  0.59512115  0.56808050     0.24900
C444        C  0.64103161  0.64810875  0.56170286    -0.23200
C445        C  0.62296080  0.68227887  0.58820194     0.19800
C446        C  0.59994634  0.66377472  0.62014251     0.24900
C447        C  0.59634164  0.61082119  0.62663742    -0.23100
C448        C  0.61586071  0.57659349  0.60064548     0.19800
F449        F  0.61284778  0.52521101  0.60630446    -0.13100
F450        F  0.65498557  0.56137616  0.54305126    -0.15500
F451        F  0.58214983  0.69767544  0.64503122    -0.15500
F452        F  0.62619602  0.73367080  0.58266597    -0.13100
C453        C  0.62072284  0.57807316  0.88990351     0.24900
C454        C  0.59588242  0.61124096  0.86502368    -0.23200
C455        C  0.59508425  0.66417403  0.87204560     0.19800
C456        C  0.61902677  0.68348230  0.90331718     0.24900
C457        C  0.64250540  0.65003606  0.92859721    -0.23100
C458        C  0.64322875  0.59726458  0.92165451     0.19800
F459        F  0.66605786  0.56429755  0.94560649    -0.13100
F460        F  0.62160381  0.52678446  0.88416247    -0.15500
F461        F  0.61759009  0.73463893  0.90959125    -0.15500
F462        F  0.57169893  0.69736919  0.84853599    -0.13100
loop_ 
_geom_bond_atom_site_label_1 
_geom_bond_atom_site_label_2 
_geom_bond_distance 
_geom_bond_site_symmetry_2 
_ccdc_geom_bond_type 
C1            N6   1.358   1_556  A
C1          N233   1.361       .  A
C1          C206   1.486       .  S
N2            C3   1.360       .  A
N2          C232   1.362       .  A
C3            N4   1.357       .  A
C3          C226   1.473       .  S
N4          C236   1.355       .  A
C5            N6   1.356       .  A
C5          N235   1.356   1_554  A
C5          C213   1.472       .  S
C7           N12   1.361   1_556  A
C7          N239   1.362       .  A
C7          C176   1.483       .  S
N8            C9   1.359       .  A
N8          C238   1.362       .  A
C9           N10   1.354       .  A
C9          C196   1.475       .  S
N10         C242   1.355       .  A
C11          N12   1.357       .  A
C11         N241   1.355   1_554  A
C11         C186   1.473       .  S
C13          N14   1.360   1_556  A
C13         N249   1.359       .  A
C13         C146   1.488       .  S
N14          C15   1.358       .  A
C15         N247   1.359   1_554  A
C15         C153   1.475       .  S
N16          C17   1.356       .  A
N16         C246   1.357       .  A
C17          N18   1.358       .  A
C17         C163   1.475       .  S
N18         C244   1.360       .  A
N19          C24   1.353       .  A
N19          C23   1.353   1_655  A
N19          H51   1.038   1_556  S
N20          C27   1.350   1_556  A
N20          C28   1.351   1_566  A
N21          C26   1.352   1_554  A
N21          C25   1.352   1_654  A
N21          H52   1.038       .  S
N22          C29   1.350   1_556  A
N22          C30   1.350   1_566  A
C23          C31   1.387   1_455  A
C23          C39   1.416       .  A
C24          C40   1.416       .  A
C24          C32   1.387       .  A
C25          C33   1.387   1_455  A
C25          C42   1.413       .  A
C26          C41   1.412       .  A
C26          C34   1.387       .  A
C27          C39   1.413   1_554  A
C27          C35   1.387       .  A
C28          C42   1.412   1_554  A
C28          C36   1.386       .  A
C29          C37   1.386       .  A
C29          C40   1.412   1_554  A
C30          C38   1.386       .  A
C30          C41   1.411   1_554  A
C31          C32   1.376       .  A
C31          H43   1.082   1_655  S
C32          H44   1.082       .  S
C33          C34   1.374       .  A
C33          H45   1.082   1_655  S
C34          H46   1.082       .  S
C35          C36   1.373   1_565  A
C35          H47   1.082       .  S
C36          H48   1.082       .  S
C37          C38   1.373   1_565  A
C37          H49   1.082       .  S
C38          H50   1.082       .  S
C39         C173   1.484       .  S
C40         C203   1.484       .  S
C41         C143   1.480       .  S
C42         C133   1.486       .  S
C53          N58   1.361   1_556  A
C53         N285   1.362       .  A
C53         C136   1.485       .  S
N54          C55   1.358       .  A
N54         C284   1.362       .  A
C55          N56   1.355       .  A
C55         C123   1.469       .  S
N56         C288   1.356       .  A
C57          N58   1.356       .  A
C57         N287   1.356   1_554  A
C57         C113   1.469       .  S
C59          N77   1.349       .  A
C59          C96   1.458       .  S
C59         C166   1.473       .  S
N60          N77   1.325       .  A
N60          N82   1.320       .  A
N60         Co97   2.088       .  S
C61          N86   1.340       .  A
C61          C99   1.458       .  S
C61         H106   1.081       .  S
H62         C103   1.081       .  S
C63          N87   1.340       .  A
C63          C67   1.457       .  S
C63          H92   1.081       .  S
Co64         N82   2.082       .  S
Co64         N72   2.091       .  S
Co64        N104   2.082       .  S
Co64         N80   2.083       .  S
Co64       Cl108   2.453       .  S
N65         C103   1.340       .  A
N65          N72   1.320       .  A
N65         Co66   2.076       .  S
Co66         N69   2.084       .  S
Co66         N86   2.083       .  S
Co66         N73   2.078       .  S
Co66       Cl108   2.460       .  S
C67         N105   1.349       .  A
C67         C193   1.472       .  S
N68          N75   1.318       .  A
N68          N98   1.325       .  A
N68        Co101   2.084       .  S
N69          N87   1.321       .  A
N69         N105   1.325       .  A
N70          C99   1.348       .  A
N70          N80   1.324       .  A
H71          C96   1.081       .  S
N72          N93   1.324       .  A
N73          N91   1.320       .  A
N73          N78   1.325       .  A
C74          N78   1.348       .  A
C74         C102   1.457       .  S
C74         C183   1.468       .  S
N75          C90   1.339       .  A
N75         Co97   2.083       .  S
C76         N104   1.342       .  A
C76          C79   1.459       .  S
C76         H110   1.081       .  S
C79         N100   1.351       .  A
C79         C156   1.478       .  S
N80          N86   1.321       .  A
N81         C107   1.339       .  A
N81          N83   1.320       .  A
N81         Co97   2.087       .  S
N82          C96   1.340       .  A
N83         N111   1.327       .  A
N83        Co101   2.090       .  S
H84         C107   1.081       .  S
H85         C102   1.081       .  S
N87        Co101   2.086       .  S
N88         N100   1.325       .  A
N88         N104   1.320       .  A
N88         Co97   2.091       .  S
C89          N93   1.351       .  A
C89         C103   1.458       .  S
C89         C223   1.477       .  S
C90         C109   1.463       .  S
C90          H94   1.080       .  S
N91         C102   1.338       .  A
N91        Co101   2.081       .  S
C95         N111   1.352       .  A
C95         C107   1.462       .  S
C95         C116   1.484       .  S
Co97       Cl108   2.447       .  S
N98         C109   1.352       .  A
C99         C216   1.471       .  S
Co101      Cl108   2.451       .  S
C109        C126   1.485       .  S
C112        C113   1.404       .  A
C112        C117   1.404       .  A
C112        F119   1.358       .  S
C113        C114   1.400       .  A
C114        C115   1.394       .  A
C114        F121   1.359       .  S
C115        C116   1.407       .  A
C115        F120   1.352       .  S
C116        C117   1.410       .  A
C117        F118   1.357       .  S
C122        C123   1.402       .  A
C122        C127   1.399       .  A
C122        F129   1.358       .  S
C123        C124   1.401       .  A
C124        C125   1.399       .  A
C124        F131   1.358       .  S
C125        C126   1.411       .  A
C125        F130   1.356       .  S
C126        C127   1.410       .  A
C127        F128   1.357       .  S
C132        C137   1.399       .  A
C132        C364   1.402       .  A
C132        F139   1.358       .  S
C133        C134   1.403   1_556  A
C133        C363   1.403       .  A
C134        C135   1.397       .  A
C134        F141   1.358       .  S
C135        C136   1.411   1_554  A
C135        F140   1.358       .  S
C136        C368   1.411       .  A
C137        C367   1.412       .  A
C137        F138   1.358       .  S
C142        C143   1.400   1_554  A
C142        C147   1.397       .  A
C142        F149   1.358       .  S
C143        C375   1.400       .  A
C144        C145   1.397       .  A
C144        C374   1.400       .  A
C144        F151   1.358       .  S
C145        C377   1.414       .  A
C145        F150   1.358       .  S
C146        C147   1.413   1_556  A
C146        C376   1.414       .  A
C147        F148   1.358       .  S
C152        C153   1.403       .  A
C152        C157   1.396       .  A
C152        F159   1.358       .  S
C153        C154   1.408       .  A
C154        C155   1.403       .  A
C154        F161   1.358       .  S
C155        C156   1.407       .  A
C155        F160   1.358       .  S
C156        C157   1.403       .  A
C157        F158   1.353       .  S
C162        C163   1.407       .  A
C162        C167   1.400       .  A
C162        F169   1.358       .  S
C163        C164   1.406       .  A
C164        C165   1.398       .  A
C164        F171   1.358       .  S
C165        C166   1.405       .  A
C165        F170   1.358       .  S
C166        C167   1.405       .  A
C167        F168   1.358       .  S
C172        C177   1.399       .  A
C172        C404   1.403       .  A
C172        F179   1.358       .  S
C173        C174   1.402   1_556  A
C173        C403   1.403       .  A
C174        C175   1.398       .  A
C174        F181   1.358       .  S
C175        C176   1.411   1_554  A
C175        F180   1.358       .  S
C176        C408   1.409       .  A
C177        C407   1.410       .  A
C177        F178   1.358       .  S
C182        C183   1.402       .  A
C182        C187   1.392       .  A
C182        F189   1.358       .  S
C183        C184   1.406       .  A
C184        C185   1.401       .  A
C184        F191   1.358       .  S
C185        C186   1.407       .  A
C185        F190   1.358       .  S
C186        C187   1.406       .  A
C187        F188   1.358       .  S
C192        C193   1.405       .  A
C192        C197   1.401       .  A
C192        F199   1.358       .  S
C193        C194   1.403       .  A
C194        C195   1.396       .  A
C194        F201   1.357       .  S
C195        C196   1.407       .  A
C195        F200   1.358       .  S
C196        C197   1.406       .  A
C197        F198   1.358       .  S
C202        C207   1.399       .  A
C202        C434   1.403       .  A
C202        F209   1.358       .  S
C203        C204   1.401   1_556  A
C203        C433   1.403       .  A
C204        C205   1.398       .  A
C204        F211   1.358       .  S
C205        C206   1.413   1_554  A
C205        F210   1.358       .  S
C206        C438   1.411       .  A
C207        C437   1.410       .  A
C207        F208   1.357       .  S
C212        C213   1.405       .  A
C212        C217   1.399       .  A
C212        F219   1.358       .  S
C213        C214   1.405       .  A
C214        C215   1.396       .  A
C214        F221   1.358       .  S
C215        C216   1.404       .  A
C215        F220   1.358       .  S
C216        C217   1.406       .  A
C217        F218   1.358       .  S
C222        C223   1.405       .  A
C222        C227   1.397       .  A
C222        F229   1.358       .  S
C223        C224   1.409       .  A
C224        C225   1.401       .  A
C224        F231   1.358       .  S
C225        C226   1.405       .  A
C225        F230   1.358       .  S
C226        C227   1.404       .  A
C227        F228   1.358       .  S
C232        N237   1.357       .  A
C232        C437   1.486       .  S
N233        C234   1.360       .  A
C234        N235   1.357       .  A
C234        C457   1.472       .  S
C236        N237   1.355       .  A
C236        C444   1.471       .  S
C238        N243   1.361       .  A
C238        C407   1.484       .  S
N239        C240   1.358       .  A
C240        N241   1.354       .  A
C240        C427   1.473       .  S
C242        N243   1.358       .  A
C242        C417   1.473       .  S
C244        N245   1.360       .  A
C244        C377   1.488       .  S
N245        C246   1.357       .  A
C246        C384   1.472       .  S
N247        C248   1.357       .  A
C248        N249   1.358       .  A
C248        C394   1.476       .  S
N250        C255   1.353       .  A
N250        C254   1.352   1_655  A
N250        H282   1.038       .  S
N251        C258   1.351       .  A
N251        C259   1.352   1_565  A
N252        C257   1.352       .  A
N252        C256   1.352   1_655  A
N252        H283   1.039       .  S
N253        C260   1.350       .  A
N253        C261   1.350   1_565  A
C254        C262   1.387   1_455  A
C254        C270   1.416       .  A
C255        C271   1.416       .  A
C255        C263   1.387       .  A
C256        C264   1.387   1_455  A
C256        C273   1.413       .  A
C257        C272   1.412       .  A
C257        C265   1.387       .  A
C258        C270   1.415       .  A
C258        C266   1.387       .  A
C259        C273   1.413       .  A
C259        C267   1.386       .  A
C260        C268   1.387       .  A
C260        C271   1.411       .  A
C261        C269   1.386       .  A
C261        C272   1.410       .  A
C262        C263   1.376       .  A
C262        H274   1.082   1_655  S
C263        H275   1.082       .  S
C264        C265   1.373       .  A
C264        H276   1.082   1_655  S
C265        H277   1.082       .  S
C266        C267   1.374   1_565  A
C266        H278   1.082       .  S
C267        H279   1.082       .  S
C268        C269   1.373   1_565  A
C268        H280   1.082       .  S
C269        H281   1.082       .  S
C270        C404   1.486       .  S
C271        C434   1.483       .  S
C272        C374   1.480       .  S
C273        C364   1.486       .  S
C284        N289   1.362       .  A
C284        C367   1.486       .  S
N285        C286   1.359       .  A
C286        N287   1.355       .  A
C286        C354   1.469       .  S
C288        N289   1.357       .  A
C288        C344   1.470       .  S
C290        N308   1.349       .  A
C290        C327   1.460       .  S
C290        C397   1.476       .  S
N291        N308   1.326       .  A
N291        N313   1.320       .  A
N291       Co328   2.090       .  S
C292        N317   1.340       .  A
C292        C330   1.459       .  S
C292        H337   1.081       .  S
H293        C334   1.081       .  S
C294        N318   1.340       .  A
C294        C298   1.460       .  S
C294        H323   1.081       .  S
Co295       N313   2.086       .  S
Co295       N303   2.091       .  S
Co295       N335   2.083       .  S
Co295       N311   2.083       .  S
Co295      Cl339   2.452       .  S
N296        C334   1.340       .  A
N296        N303   1.320       .  A
N296       Co297   2.077       .  S
Co297       N300   2.083       .  S
Co297       N317   2.082       .  S
Co297       N304   2.081       .  S
Co297      Cl339   2.461       .  S
C298        N336   1.349       .  A
C298        C424   1.476       .  S
N299        N306   1.319       .  A
N299        N329   1.325       .  A
N299       Co332   2.084       .  S
N300        N318   1.321       .  A
N300        N336   1.325       .  A
N301        C330   1.348       .  A
N301        N311   1.323       .  A
H302        C327   1.081       .  S
N303        N324   1.324       .  A
N304        N322   1.320       .  A
N304        N309   1.325       .  A
C305        N309   1.349       .  A
C305        C333   1.455       .  S
C305        C414   1.468       .  S
N306        C321   1.339       .  A
N306       Co328   2.078       .  S
C307        N335   1.342       .  A
C307        C310   1.460       .  S
C307        H341   1.081       .  S
C310        N331   1.351       .  A
C310        C387   1.479       .  S
N311        N317   1.321       .  A
N312        C338   1.340       .  A
N312        N314   1.320       .  A
N312       Co328   2.089       .  S
N313        C327   1.341       .  A
N314        N342   1.327       .  A
N314       Co332   2.091       .  S
H315        C338   1.081       .  S
H316        C333   1.081       .  S
N318       Co332   2.088       .  S
N319        N331   1.324       .  A
N319        N335   1.319       .  A
N319       Co328   2.088       .  S
C320        N324   1.351       .  A
C320        C334   1.458       .  S
C320        C454   1.477       .  S
C321        C340   1.459       .  S
C321        H325   1.081       .  S
N322        C333   1.337       .  A
N322       Co332   2.079       .  S
C326        N342   1.351       .  A
C326        C338   1.463       .  S
C326        C347   1.484       .  S
Co328      Cl339   2.449       .  S
N329        C340   1.352       .  A
C330        C447   1.471       .  S
Co332      Cl339   2.450       .  S
C340        C357   1.480       .  S
C343        C344   1.404       .  A
C343        C348   1.405       .  A
C343        F350   1.358       .  S
C344        C345   1.400       .  A
C345        C346   1.394       .  A
C345        F352   1.359       .  S
C346        C347   1.407       .  A
C346        F351   1.353       .  S
C347        C348   1.411       .  A
C348        F349   1.357       .  S
C353        C354   1.402       .  A
C353        C358   1.398       .  A
C353        F360   1.358       .  S
C354        C355   1.402       .  A
C355        C356   1.400       .  A
C355        F362   1.358       .  S
C356        C357   1.410       .  A
C356        F361   1.357       .  S
C357        C358   1.407       .  A
C358        F359   1.355       .  S
C363        C368   1.399       .  A
C363        F370   1.358       .  S
C364        C365   1.403       .  A
C365        C366   1.398       .  A
C365        F372   1.358       .  S
C366        C367   1.411       .  A
C366        F371   1.358       .  S
C368        F369   1.358       .  S
C373        C374   1.400       .  A
C373        C378   1.398       .  A
C373        F380   1.358       .  S
C375        C376   1.397       .  A
C375        F382   1.358       .  S
C376        F381   1.358       .  S
C377        C378   1.413       .  A
C378        F379   1.358       .  S
C383        C384   1.402       .  A
C383        C388   1.396       .  A
C383        F390   1.358       .  S
C384        C385   1.406       .  A
C385        C386   1.402       .  A
C385        F392   1.358       .  S
C386        C387   1.408       .  A
C386        F391   1.357       .  S
C387        C388   1.405       .  A
C388        F389   1.354       .  S
C393        C394   1.407       .  A
C393        C398   1.402       .  A
C393        F400   1.358       .  S
C394        C395   1.406       .  A
C395        C396   1.398       .  A
C395        F402   1.358       .  S
C396        C397   1.405       .  A
C396        F401   1.358       .  S
C397        C398   1.406       .  A
C398        F399   1.358       .  S
C403        C408   1.398       .  A
C403        F410   1.358       .  S
C404        C405   1.403       .  A
C405        C406   1.399       .  A
C405        F412   1.358       .  S
C406        C407   1.411       .  A
C406        F411   1.358       .  S
C408        F409   1.358       .  S
C413        C414   1.403       .  A
C413        C418   1.393       .  A
C413        F420   1.358       .  S
C414        C415   1.405       .  A
C415        C416   1.401       .  A
C415        F422   1.358       .  S
C416        C417   1.407       .  A
C416        F421   1.358       .  S
C417        C418   1.405       .  A
C418        F419   1.358       .  S
C423        C424   1.407       .  A
C423        C428   1.402       .  A
C423        F430   1.358       .  S
C424        C425   1.404       .  A
C425        C426   1.396       .  A
C425        F432   1.355       .  S
C426        C427   1.405       .  A
C426        F431   1.358       .  S
C427        C428   1.405       .  A
C428        F429   1.358       .  S
C433        C438   1.399       .  A
C433        F440   1.358       .  S
C434        C435   1.400       .  A
C435        C436   1.397       .  A
C435        F442   1.358       .  S
C436        C437   1.413       .  A
C436        F441   1.358       .  S
C438        F439   1.358       .  S
C443        C444   1.405       .  A
C443        C448   1.399       .  A
C443        F450   1.358       .  S
C444        C445   1.405       .  A
C445        C446   1.396       .  A
C445        F452   1.358       .  S
C446        C447   1.404       .  A
C446        F451   1.358       .  S
C447        C448   1.406       .  A
C448        F449   1.358       .  S
C453        C454   1.406       .  A
C453        C458   1.398       .  A
C453        F460   1.358       .  S
C454        C455   1.409       .  A
C455        C456   1.400       .  A
C455        F462   1.358       .  S
C456        C457   1.404       .  A
C456        F461   1.358       .  S
C457        C458   1.404       .  A
C458        F459   1.358       .  S
