geometry optimzed in LAMMPS
_audit_creation_date              2020-11-30 
_audit_creation_method            'lammps2cif' 
_symmetry_space_group_name_H-M    'P1' 
_symmetry_Int_Tables_number       1 
_symmetry_cell_setting            triclinic 
loop_ 
_symmetry_equiv_pos_as_xyz 
  x,y,z 
_cell_length_a                    35.16770192 
_cell_length_b                    38.146873764532806 
_cell_length_c                    24.42769200957344 
_cell_angle_alpha                 80.47040184166023 
_cell_angle_beta                  76.50314207591957 
_cell_angle_gamma                 90.34309381909749 
loop_ 
_atom_site_label 
_atom_site_type_symbol 
_atom_site_fract_x 
_atom_site_fract_y 
_atom_site_fract_z 
_atom_site_charge 
N1          N  0.35048677  0.34673648  0.99454235    -0.03200
C2          C  0.37756668  0.37426676  0.97394545    -0.00600
C3          C  0.39454320  0.37506684  0.41600151    -0.23500
C4          C  0.37756909  0.34741378  0.40002098    -0.23700
C5          C  0.35041398  0.33131202  0.44798296    -0.00700
H6          H  0.41578836  0.39477792  0.38820287     0.13000
H7          H  0.38239160  0.34130514  0.35728346     0.13100
N8          N  0.07030741  0.39118259  0.03172156    -0.03200
C9          C  0.04358042  0.41685719  0.04269982    -0.00600
C10         C  0.04070884  0.42515060  0.09649214    -0.23500
C11         C  0.06629698  0.40529514  0.11987493    -0.23700
C12         C  0.08403461  0.38516898  0.08003377    -0.00700
H13         H  0.02113901  0.44347821  0.11696218     0.13000
H14         H  0.07082808  0.40467225  0.16237101     0.13100
N15         N  0.29213284  0.06465124  0.02485755    -0.03200
C16         C  0.30744484  0.03239721  0.01709816    -0.00600
C17         C  0.28594141  0.00541301  0.05826869    -0.23500
C18         C  0.25909914  0.02104362  0.09499867    -0.23700
C19         C  0.26416275  0.05687084  0.07445115    -0.00700
H20         H  0.29333077  0.47783080  0.06657098     0.13000
H21         H  0.24104076  0.00818171  0.13568227     0.13100
N22         N  0.44859660  0.42823702  0.49919220    -0.36400
N23         N  0.48577668  0.49124320  0.01399885    -0.56900
N24         N  0.41714830  0.03342996  0.01001209    -0.36400
N25         N  0.37949018  0.46912005  0.49569292    -0.56900
C26         C  0.47875894  0.41523894  0.52025992     0.27200
C27         C  0.41851030  0.40384826  0.51951133     0.27200
C28         C  0.43325351  0.04937453  0.04581277     0.27200
C29         C  0.37869765  0.04126572  0.01902227     0.27200
C30         C  0.01773253  0.47172464  0.00027980     0.35800
C31         C  0.99798777  0.02210047  0.02651088     0.35800
C32         C  0.36930606  0.43810817  0.48188228     0.35800
C33         C  0.35730667  0.49369288  0.97460485     0.35800
C34         C  0.46731443  0.38240264  0.55512308    -0.21700
C35         C  0.42949144  0.37472753  0.55303553    -0.21700
C36         C  0.40520860  0.06933331  0.07498718    -0.21700
C37         C  0.37108023  0.06386506  0.05871661    -0.21700
C38         C  0.05084012  0.49162463  0.00033429    -0.22700
C39         C  0.03817392  0.02250631  0.01912661    -0.22700
C40         C  0.34083047  0.44337027  0.45096406    -0.22700
C41         C  0.33328152  0.47897691  0.44616582    -0.22700
C42         C  0.01542078  0.43338769  0.51061537    -0.18100
C43         C  0.38436753  0.40505325  0.49979929    -0.18100
C44         C  0.35004431  0.02590819  0.99586483    -0.18100
C45         C  0.47228971  0.04613259  0.05356458    -0.18100
H46         H  0.98450032  0.36552109  0.57920487     0.14800
H47         H  0.41205377  0.35058111  0.57346468     0.14800
H48         H  0.40841692  0.08562288  0.10603315     0.14800
H49         H  0.34352581  0.07399488  0.07696436     0.14800
H50         H  0.08038088  0.48259544  0.99559147     0.13100
H51         H  0.05666726  0.04149587  0.02934134     0.13100
H52         H  0.32584408  0.42341219  0.43587622     0.13100
H53         H  0.31036323  0.49168281  0.42836064     0.13100
H54         H  0.44970437  0.45099299  0.46840567     0.26400
H55         H  0.43140739  0.01821209  0.98038416     0.26400
N56         N  0.01152342  0.08691676  0.09851531    -0.03200
C57         C  0.00892157  0.09399312  0.15238001    -0.00600
C58         C  0.97768945  0.07368130  0.18949252    -0.23500
C59         C  0.46167476  0.05336217  0.15795710    -0.23700
C60         C  0.48256105  0.06210504  0.10168176    -0.00700
H61         H  0.96655978  0.07412831  0.23447177     0.13000
H62         H  0.43664240  0.03477865  0.17423058     0.13100
O63         O  0.12703621  0.26819062  0.38779834    -0.79900
O64         O  0.14023714  0.21269113  0.18303624    -0.80300
O65         O  0.18301351  0.30122739  0.24052890    -0.79900
O66         O  0.14246112  0.15134918  0.37129574    -0.79900
O67         O  0.13234838  0.26425881  0.25192918    -0.80000
O68         O  0.10976453  0.19737534  0.38993632    -0.79900
O69         O  0.12589892  0.17949630  0.26882322    -0.79900
O70         O  0.18149705  0.30133406  0.35280739    -0.79900
C71         C  0.14546605  0.29805752  0.37996670     1.09800
C72         C  0.11940923  0.18746856  0.21800051     1.09700
C73         C  0.14974675  0.29429741  0.23144962     1.09800
C74         C  0.11241184  0.16428990  0.39823916     1.09700
O75         O  0.18666572  0.17951531  0.41937725    -0.79900
O76         O  0.20776287  0.25719014  0.17709052    -0.80000
O77         O  0.24504140  0.25099715  0.34245029    -0.79900
O78         O  0.18481840  0.13575014  0.27380848    -0.79900
O79         O  0.20490575  0.18613065  0.21333326    -0.79900
O80         O  0.19837465  0.24885175  0.42000787    -0.79900
O81         O  0.22256943  0.17138895  0.33525117    -0.79900
O82         O  0.24882194  0.25471738  0.23140922    -0.79900
Co83       Co  0.15555458  0.22358534  0.39911640     1.51500
Co84       Co  0.16635121  0.22495889  0.23859689     1.51700
Co85       Co  0.21338330  0.27428908  0.29291852     1.51600
Co86       Co  0.17710100  0.17894494  0.30074809     1.51500
O87         O  0.17889223  0.22935554  0.31348577    -1.41800
C88         C  0.21617946  0.16598601  0.38941243     1.09700
C89         C  0.24225664  0.26319004  0.18271451     1.09800
C90         C  0.23434377  0.25142700  0.39492102     1.09700
C91         C  0.20322681  0.15185326  0.22536438     1.09700
C92         C  0.04566425  0.15380157  0.13980454    -0.26100
C93         C  0.03588329  0.11890082  0.17028297    -0.14200
C94         C  0.05278020  0.10794635  0.21751866     0.36500
C95         C  0.07841402  0.13117733  0.23233995    -0.25500
C96         C  0.08899021  0.16573464  0.20140513    -0.14800
C97         C  0.07211477  0.17711303  0.15431787     0.37600
N98         N  0.08115565  0.21238813  0.12184369    -0.89000
H99         H  0.03271801  0.16298393  0.10420192     0.18700
H100        H  0.09116292  0.12142863  0.26799008     0.18700
N101        N  0.04622958  0.07266930  0.25006711    -0.88000
H102        H  0.06430245  0.21743750  0.09158292     0.36000
H103        H  0.11024399  0.21331393  0.09860113     0.41100
H104        H  0.05213558  0.05426922  0.22222015     0.40800
H105        H  0.01719428  0.06912080  0.27335720     0.35600
C106        C  0.10221118  0.12265749  0.48852000    -0.26100
C107        C  0.08577765  0.14243167  0.44690937    -0.14200
C108        C  0.04482032  0.14322851  0.45534600     0.36500
C109        C  0.02105964  0.12446558  0.00506087    -0.25500
C110        C  0.03733699  0.10495556  0.04716215    -0.14800
C111        C  0.07853046  0.10387973  0.03866729     0.37600
N112        N  0.09717070  0.08319821  0.07899195    -0.89000
H113        H  0.13375941  0.12232529  0.48230450     0.18700
H114        H  0.98953826  0.12530229  0.01178177     0.18700
N115        N  0.02678822  0.16302224  0.41385593    -0.88000
H116        H  0.11484754  0.06532500  0.05769839     0.36000
H117        H  0.07675795  0.06738873  0.11175662     0.41100
H118        H  0.03724262  0.15440300  0.37483333     0.40800
H119        H  0.03537356  0.19066764  0.90922049     0.35600
C120        C  0.22184662  0.10611423  0.09834479    -0.26100
C121        C  0.25022788  0.08283051  0.11121341    -0.14200
C122        C  0.26472562  0.08371559  0.16010702     0.36500
C123        C  0.25046571  0.10802719  0.19560934    -0.25500
C124        C  0.22215181  0.13131223  0.18277655    -0.14800
C125        C  0.20821340  0.13114619  0.13321474     0.37600
N126        N  0.17923100  0.15532655  0.11986642    -0.89000
H127        H  0.21041382  0.10471894  0.06118675     0.18700
H128        H  0.26108264  0.10830574  0.23370355     0.18700
N129        N  0.29315714  0.05938084  0.17458010    -0.88000
H130        H  0.17074428  0.15041830  0.08345387     0.36000
H131        H  0.19251235  0.18091659  0.10936561     0.41100
H132        H  0.31736611  0.07421026  0.17794589     0.40800
H133        H  0.28102615  0.04428951  0.21480499     0.35600
C134        C  0.26453421  0.08111467  0.44091210    -0.26100
C135        C  0.28417391  0.09181629  0.97982337    -0.14200
C136        C  0.28462282  0.12864039  0.98400951     0.36500
C137        C  0.26178735  0.15218896  0.45509420    -0.25500
C138        C  0.24109753  0.14086862  0.41804308    -0.14800
C139        C  0.24367393  0.10508305  0.40956330     0.37600
N140        N  0.22275838  0.09249822  0.37213608    -0.89000
H141        H  0.26331851  0.05314906  0.43784520     0.18700
H142        H  0.26020001  0.17949610  0.46206354     0.18700
N143        N  0.30710316  0.14306087  0.01783643    -0.88000
H144        H  0.22582170  0.06519057  0.37289139     0.36000
H145        H  0.23621661  0.10482201  0.33065948     0.41100
H146        H  0.32285268  0.12350033  0.03640161     0.40800
H147        H  0.28782587  0.15274192  0.05085052     0.35600
C148        C  0.10911364  0.30290943  0.16074715    -0.26100
C149        C  0.13620911  0.31747387  0.18598375    -0.14200
C150        C  0.15337045  0.35185012  0.16212235     0.36500
C151        C  0.14163573  0.37120899  0.11547025    -0.25500
C152        C  0.11082414  0.35827638  0.09570963    -0.14800
C153        C  0.09612520  0.32296388  0.11634333     0.37600
N154        N  0.06623638  0.30746823  0.09568100    -0.89000
H155        H  0.09701732  0.27594438  0.17640476     0.18700
H156        H  0.15243896  0.39859958  0.09999439     0.18700
N157        N  0.18087369  0.36781938  0.18705169    -0.88000
H158        H  0.07742199  0.30646478  0.05252247     0.36000
H159        H  0.04198626  0.32336278  0.10016019     0.41100
H160        H  0.16601829  0.37138722  0.22799459     0.40800
H161        H  0.19072994  0.39311381  0.16400327     0.35600
C162        C  0.08452452  0.32689607  0.42683603    -0.26100
C163        C  0.12563460  0.32802968  0.40792664    -0.14200
C164        C  0.14687142  0.35597780  0.42119750     0.36500
C165        C  0.12718873  0.37861451  0.45822480    -0.25500
C166        C  0.08639305  0.37542316  0.48116625    -0.14800
C167        C  0.06495605  0.35034589  0.46224070     0.37600
N168        N  0.02343912  0.34659169  0.48186880    -0.89000
H169        H  0.06727767  0.30657984  0.41607338     0.18700
H170        H  0.14426865  0.39811566  0.97123072     0.18700
N171        N  0.18857366  0.36039022  0.39960179    -0.88000
H172        H  0.01594828  0.32049103  0.50319178     0.36000
H173        H  0.01139098  0.35059633  0.44614877     0.41100
H174        H  0.19967729  0.38140831  0.41469063     0.40800
H175        H  0.19408629  0.36819057  0.85469028     0.35600
C176        C  0.33658640  0.29359786  0.06901705    -0.26100
C177        C  0.33071495  0.32999412  0.05232309    -0.14200
C178        C  0.29779215  0.34478123  0.08381091     0.36500
C179        C  0.26903223  0.32209732  0.12496813    -0.25500
C180        C  0.27296819  0.28505264  0.13691992    -0.14800
C181        C  0.30843749  0.27102927  0.11056941     0.37600
N182        N  0.31653118  0.23402919  0.12329616    -0.89000
H183        H  0.36205750  0.28195671  0.04570134     0.18700
H184        H  0.24315891  0.33336877  0.14759152     0.18700
N185        N  0.29201873  0.38216401  0.07066591    -0.88000
H186        H  0.31889013  0.22331627  0.08596967     0.36000
H187        H  0.29360073  0.21964220  0.15392109     0.41100
H188        H  0.31322859  0.39580254  0.58201511     0.40800
H189        H  0.26528133  0.38853373  0.09533864     0.35600
C190        C  0.25212959  0.29147600  0.45196308    -0.26100
C191        C  0.26305294  0.26313819  0.42289564    -0.14200
C192        C  0.30290527  0.25445570  0.40837295     0.36500
C193        C  0.33088004  0.27571363  0.42120529    -0.25500
C194        C  0.31998729  0.30582837  0.44571097    -0.14800
C195        C  0.28038158  0.31396924  0.46074066     0.37600
N196        N  0.26907352  0.34717429  0.47819182    -0.89000
H197        H  0.22193155  0.29911870  0.46119341     0.18700
H198        H  0.36155296  0.26997275  0.40881370     0.18700
N199        N  0.31634120  0.22594738  0.37789678    -0.88000
H200        H  0.24650327  0.34188300  0.51528326     0.36000
H201        H  0.25758154  0.36207320  0.44644941     0.41100
H202        H  0.29319491  0.21140197  0.37116014     0.40800
H203        H  0.33007187  0.20822964  0.40373542     0.35600
N204        N  0.35034420  0.34690710  0.49387706    -0.03200
C205        C  0.37701586  0.37475113  0.47304847    -0.00600
C206        C  0.39519629  0.37450916  0.91695289    -0.23500
C207        C  0.37790839  0.34711187  0.90078788    -0.23700
C208        C  0.35047048  0.33123002  0.94859077    -0.00700
H209        H  0.41666314  0.39407323  0.88926639     0.13000
H210        H  0.38277084  0.34101910  0.85803664     0.13100
N211        N  0.07004005  0.39097991  0.53217233    -0.03200
C212        C  0.04285856  0.41625636  0.54343476    -0.00600
C213        C  0.03964290  0.42430930  0.59744265    -0.23500
C214        C  0.06546877  0.40471824  0.62069682    -0.23700
C215        C  0.08367851  0.38497145  0.58056960    -0.00700
H216        H  0.01978943  0.44239270  0.61804714     0.13000
H217        H  0.06986544  0.40401928  0.66328123     0.13100
N218        N  0.29212397  0.06484341  0.52497630    -0.03200
C219        C  0.30760356  0.03267848  0.51709220    -0.00600
C220        C  0.28612076  0.00555192  0.55798589    -0.23500
C221        C  0.25908265  0.02100380  0.59470556    -0.23700
C222        C  0.26405663  0.05686528  0.57442513    -0.00700
H223        H  0.29359604  0.47798581  0.56610260     0.13000
H224        H  0.24096042  0.00800632  0.63525007     0.13100
N225        N  0.44895407  0.42821790  0.99934111    -0.36400
N226        N  0.48566241  0.49103119  0.51439688    -0.56900
N227        N  0.41724648  0.03354901  0.51033289    -0.36400
N228        N  0.37955935  0.46875696  0.99601772    -0.56900
C229        C  0.47925654  0.41544560  0.02026697     0.27200
C230        C  0.41898816  0.40374292  0.02002464     0.27200
C231        C  0.43334015  0.04931757  0.54631699     0.27200
C232        C  0.37884271  0.04153116  0.51918668     0.27200
C233        C  0.01752038  0.47135813  0.50089795     0.35800
C234        C  0.99795623  0.02176043  0.52723345     0.35800
C235        C  0.36944662  0.43760266  0.98257911     0.35800
C236        C  0.35752160  0.49426499  0.47413110     0.35800
C237        C  0.46802594  0.38267373  0.05542765    -0.21700
C238        C  0.43018244  0.37479202  0.05366160    -0.21700
C239        C  0.40534128  0.06933234  0.57547434    -0.21700
C240        C  0.37124003  0.06407929  0.55896545    -0.21700
C241        C  0.05066890  0.49104343  0.50143987    -0.22700
C242        C  0.03810467  0.02193723  0.52029712    -0.22700
C243        C  0.34074412  0.44256357  0.95202833    -0.22700
C244        C  0.33295837  0.47812473  0.94710781    -0.22700
C245        C  0.01585681  0.43376153  0.01020323    -0.18100
C246        C  0.38477137  0.40468427  0.00052477    -0.18100
C247        C  0.35022478  0.02634259  0.49576577    -0.18100
C248        C  0.47233026  0.04587928  0.55420478    -0.18100
H249        H  0.98537573  0.36596345  0.07946044     0.14800
H250        H  0.41287321  0.35061715  0.07435320     0.14800
H251        H  0.40856635  0.08552302  0.60664301     0.14800
H252        H  0.34371177  0.07434025  0.57703939     0.14800
H253        H  0.08012720  0.48184247  0.49698094     0.13100
H254        H  0.05659271  0.04077467  0.53092530     0.13100
H255        H  0.32576397  0.42243385  0.93728876     0.13100
H256        H  0.30985222  0.49061948  0.92950710     0.13100
H257        H  0.44989053  0.45086877  0.96841068     0.26400
H258        H  0.43149713  0.01834466  0.48066810     0.26400
N259        N  0.01166591  0.08669139  0.59891369    -0.03200
C260        C  0.00915990  0.09379331  0.65275506    -0.00600
C261        C  0.97797180  0.07346883  0.68997140    -0.23500
C262        C  0.46188959  0.05312304  0.65855065    -0.23700
C263        C  0.48268586  0.06186132  0.60224037    -0.00700
H264        H  0.96688222  0.07394729  0.73494640     0.13000
H265        H  0.43686574  0.03453682  0.67491449     0.13100
O266        O  0.12722734  0.26826750  0.88760690    -0.79900
O267        O  0.14038659  0.21270082  0.68316488    -0.80300
O268        O  0.18334216  0.30128139  0.74038296    -0.79900
O269        O  0.14269730  0.15144843  0.87142317    -0.79900
O270        O  0.13265240  0.26430672  0.75197050    -0.80000
O271        O  0.11001799  0.19751351  0.88973000    -0.79900
O272        O  0.12607651  0.17955724  0.76898756    -0.79900
O273        O  0.18168848  0.30141174  0.85266431    -0.79900
C274        C  0.14563921  0.29814075  0.87974838     1.09800
C275        C  0.11954076  0.18751468  0.71819006     1.09700
C276        C  0.15005076  0.29433703  0.73141768     1.09800
C277        C  0.11262703  0.16443597  0.89819573     1.09700
O278        O  0.18690777  0.17962844  0.91939454    -0.79900
O279        O  0.20800530  0.25712724  0.67707901    -0.80000
O280        O  0.24525474  0.25112148  0.84250396    -0.79900
O281        O  0.18493158  0.13574151  0.77408356    -0.79900
O282        O  0.20503711  0.18604282  0.71341300    -0.79900
O283        O  0.19851211  0.24898238  0.91999550    -0.79900
O284        O  0.22280166  0.17146408  0.83528493    -0.79900
O285        O  0.24915820  0.25484353  0.73127398    -0.79900
Co286      Co  0.15576644  0.22369203  0.89903238     1.51500
Co287      Co  0.16658212  0.22496129  0.73864524     1.51700
Co288      Co  0.21365894  0.27437434  0.79283490     1.51600
Co289      Co  0.17731940  0.17899368  0.80083505     1.51500
O290        O  0.17918846  0.22941650  0.81344416    -1.41800
C291        C  0.21641378  0.16606875  0.88944232     1.09700
C292        C  0.24251337  0.26320923  0.68258955     1.09800
C293        C  0.23449037  0.25154943  0.89498120     1.09700
C294        C  0.20328939  0.15176525  0.72556650     1.09700
C295        C  0.04591319  0.15364422  0.63995219    -0.26100
C296        C  0.03610741  0.11877633  0.67057067    -0.14200
C297        C  0.05291971  0.10794529  0.71793768     0.36500
C298        C  0.07844664  0.13126490  0.73278303    -0.25500
C299        C  0.08908468  0.16576835  0.70167737    -0.14800
C300        C  0.07230940  0.17702765  0.65444454     0.37600
N301        N  0.08140095  0.21225055  0.62178855    -0.89000
H302        H  0.03303531  0.16274382  0.60425053     0.18700
H303        H  0.09111431  0.12160075  0.76854956     0.18700
N304        N  0.04646076  0.07268291  0.75054695    -0.88000
H305        H  0.06464270  0.21720546  0.59139207     0.36000
H306        H  0.11052449  0.21314756  0.59869638     0.41100
H307        H  0.05246721  0.05426250  0.72274459     0.40800
H308        H  0.01743001  0.06906376  0.77383301     0.35600
C309        C  0.10222593  0.12273695  0.98839960    -0.26100
C310        C  0.08589199  0.14266563  0.94681992    -0.14200
C311        C  0.04494701  0.14371967  0.95527189     0.36500
C312        C  0.02102488  0.12399032  0.50524384    -0.25500
C313        C  0.03739948  0.10468176  0.54742176    -0.14800
C314        C  0.07860625  0.10374198  0.53882829     0.37600
N315        N  0.09736105  0.08320688  0.57914748    -0.89000
H316        H  0.13376618  0.12224461  0.98220000     0.18700
H317        H  0.98949389  0.12468181  0.51197642     0.18700
N318        N  0.02701516  0.16380207  0.91391871    -0.88000
H319        H  0.11512455  0.06538039  0.55786739     0.36000
H320        H  0.07702766  0.06734882  0.61195871     0.41100
H321        H  0.03739837  0.15531364  0.87477265     0.40800
H322        H  0.03500927  0.18994087  0.40889044     0.35600
C323        C  0.22158857  0.10592815  0.59865028    -0.26100
C324        C  0.25001470  0.08266896  0.61139853    -0.14200
C325        C  0.26455084  0.08350012  0.66026507     0.36500
C326        C  0.25037043  0.10782210  0.69577928    -0.25500
C327        C  0.22205041  0.13112809  0.68302969    -0.14800
C328        C  0.20796277  0.13091265  0.63360447     0.37600
N329        N  0.17885948  0.15500943  0.62045770    -0.89000
H330        H  0.21012883  0.10456089  0.56150629     0.18700
H331        H  0.26109004  0.10811574  0.73377543     0.18700
N332        N  0.29297003  0.05912498  0.67466032    -0.88000
H333        H  0.17023027  0.15003406  0.58418869     0.36000
H334        H  0.19208870  0.18062229  0.60980546     0.41100
H335        H  0.31720094  0.07391784  0.67803485     0.40800
H336        H  0.28084107  0.04401482  0.71487247     0.35600
C337        C  0.26478122  0.08110943  0.94060043    -0.26100
C338        C  0.28400388  0.09193183  0.47997684    -0.14200
C339        C  0.28439500  0.12876608  0.48407230     0.36500
C340        C  0.26199920  0.15212373  0.95515547    -0.25500
C341        C  0.24130630  0.14089227  0.91804139    -0.14800
C342        C  0.24395685  0.10515314  0.90930696     0.37600
N343        N  0.22317343  0.09269023  0.87162955    -0.89000
H344        H  0.26358871  0.05316962  0.93736120     0.18700
H345        H  0.26043711  0.17941239  0.96222354     0.18700
N346        N  0.30677627  0.14325158  0.51796442    -0.88000
H347        H  0.22632670  0.06541294  0.87213129     0.36000
H348        H  0.23669065  0.10515814  0.83026682     0.41100
H349        H  0.32249008  0.12371831  0.53667256     0.40800
H350        H  0.28742027  0.15294393  0.55089018     0.35600
C351        C  0.10961885  0.30280221  0.66050739    -0.26100
C352        C  0.13643959  0.31749913  0.68604676    -0.14200
C353        C  0.15322408  0.35205034  0.66265028     0.36500
C354        C  0.14131708  0.37147016  0.61619250    -0.25500
C355        C  0.11076135  0.35833122  0.59610211    -0.14800
C356        C  0.09648945  0.32286112  0.61626118     0.37600
N357        N  0.06685951  0.30718314  0.59531578    -0.89000
H358        H  0.09783379  0.27571618  0.67581789     0.18700
H359        H  0.15177742  0.39897936  0.60111041     0.18700
N360        N  0.18050434  0.36809916  0.68786787    -0.88000
H361        H  0.07816525  0.30638705  0.55211800     0.36000
H362        H  0.04240323  0.32282685  0.59991404     0.41100
H363        H  0.16555651  0.37133644  0.72894061     0.40800
H364        H  0.19006310  0.39354291  0.66518357     0.35600
C365        C  0.08466466  0.32695461  0.92663603    -0.26100
C366        C  0.12577603  0.32812821  0.90762202    -0.14200
C367        C  0.14701071  0.35614415  0.92071305     0.36500
C368        C  0.12734382  0.37882153  0.95766186    -0.25500
C369        C  0.08656793  0.37558810  0.98073535    -0.14800
C370        C  0.06510791  0.35044653  0.96197613     0.37600
N371        N  0.02358707  0.34671809  0.98163088    -0.89000
H372        H  0.06741591  0.30658881  0.91599537     0.18700
H373        H  0.14410699  0.39785129  0.47192323     0.18700
N374        N  0.18870735  0.36057374  0.89904381    -0.88000
H375        H  0.01608062  0.32063630  0.00303278     0.36000
H376        H  0.01152843  0.35068111  0.94592027     0.41100
H377        H  0.19983500  0.38160492  0.91406942     0.40800
H378        H  0.19399426  0.36803926  0.35525479     0.35600
C379        C  0.33660126  0.29379352  0.56840676    -0.26100
C380        C  0.33060383  0.33016363  0.55169126    -0.14200
C381        C  0.29759996  0.34486189  0.58317651     0.36500
C382        C  0.26899723  0.32213296  0.62455155    -0.25500
C383        C  0.27310666  0.28511503  0.63662730    -0.14800
C384        C  0.30854953  0.27116039  0.61002138     0.37600
N385        N  0.31668262  0.23415224  0.62246946    -0.89000
H386        H  0.36208083  0.28220373  0.54501084     0.18700
H387        H  0.24308283  0.33334848  0.64721195     0.18700
N388        N  0.29156963  0.38218197  0.56981629    -0.88000
H389        H  0.31893681  0.22353851  0.58507659     0.36000
H390        H  0.29379676  0.21971509  0.65312358     0.41100
H391        H  0.31374782  0.39557683  0.08303730     0.40800
H392        H  0.26478958  0.38846537  0.59448063     0.35600
C393        C  0.25217509  0.29140667  0.95242820    -0.26100
C394        C  0.26314852  0.26318612  0.92309823    -0.14200
C395        C  0.30300222  0.25454083  0.90853475     0.36500
C396        C  0.33094664  0.27577073  0.92146794    -0.25500
C397        C  0.32002209  0.30579581  0.94621278    -0.14800
C398        C  0.28039356  0.31385794  0.96140395     0.37600
N399        N  0.26900824  0.34694191  0.97925648    -0.89000
H400        H  0.22196183  0.29900498  0.96173904     0.18700
H401        H  0.36162637  0.27006609  0.90900789     0.18700
N402        N  0.31646458  0.22608990  0.87793704    -0.88000
H403        H  0.24650650  0.34147152  0.01641194     0.36000
H404        H  0.25737443  0.36191599  0.94773432     0.41100
H405        H  0.29332314  0.21150120  0.87127786     0.40800
H406        H  0.33027403  0.20838097  0.90367694     0.35600
N407        N  0.35048507  0.84673775  0.99454409    -0.03200
C408        C  0.37756859  0.87426510  0.97394895    -0.00600
C409        C  0.39454195  0.87506662  0.41600030    -0.23500
C410        C  0.37756963  0.84741178  0.40002178    -0.23700
C411        C  0.35041663  0.83130880  0.44798524    -0.00700
H412        H  0.41578524  0.89477874  0.38820022     0.13000
H413        H  0.38239122  0.84130305  0.35728441     0.13100
N414        N  0.07030609  0.89118313  0.03172189    -0.03200
C415        C  0.04357924  0.91685784  0.04269980    -0.00600
C416        C  0.04070729  0.92515130  0.09649219    -0.23500
C417        C  0.06629525  0.90529588  0.11987533    -0.23700
C418        C  0.08403296  0.88516966  0.08003436    -0.00700
H419        H  0.02113733  0.94347889  0.11696204     0.13000
H420        H  0.07082599  0.90467284  0.16237164     0.13100
N421        N  0.29213419  0.56465228  0.02485890    -0.03200
C422        C  0.30744630  0.53239835  0.01709903    -0.00600
C423        C  0.28594426  0.50541417  0.05827114    -0.23500
C424        C  0.25910332  0.52104479  0.09500290    -0.23700
C425        C  0.26416586  0.55687195  0.07445448    -0.00700
H426        H  0.29332739  0.97782953  0.06656894     0.13000
H427        H  0.24104619  0.50818293  0.13568746     0.13100
N428        N  0.44859706  0.92823617  0.49919216    -0.36400
N429        N  0.48577704  0.99124357  0.01399542    -0.56900
N430        N  0.41714942  0.53343073  0.01001346    -0.36400
N431        N  0.37949097  0.96911975  0.49569217    -0.56900
C432        C  0.47875910  0.91523781  0.52026038     0.27200
C433        C  0.41851069  0.90384738  0.51951029     0.27200
C434        C  0.43325449  0.54937507  0.04581450     0.27200
C435        C  0.37869888  0.54126675  0.01902327     0.27200
C436        C  0.01773188  0.97172537  0.00027958     0.35800
C437        C  0.99798851  0.52210011  0.02650981     0.35800
C438        C  0.36930682  0.93810799  0.48188113     0.35800
C439        C  0.35730528  0.99369098  0.97460576     0.35800
C440        C  0.46731435  0.88240133  0.55512277    -0.21700
C441        C  0.42949158  0.87472634  0.55303413    -0.21700
C442        C  0.40520964  0.56933395  0.07498878    -0.21700
C443        C  0.37108136  0.56386592  0.05871791    -0.21700
C444        C  0.05083940  0.99162508  0.00033523    -0.22700
C445        C  0.03817476  0.52250622  0.01912460    -0.22700
C446        C  0.34083133  0.94337037  0.45096277    -0.22700
C447        C  0.33328254  0.97897703  0.44616474    -0.22700
C448        C  0.01542118  0.93338847  0.51061537    -0.18100
C449        C  0.38436795  0.90505288  0.49979815    -0.18100
C450        C  0.35004573  0.52590975  0.99586490    -0.18100
C451        C  0.47229043  0.54613264  0.05356702    -0.18100
H452        H  0.98450111  0.86552150  0.57920386     0.14800
H453        H  0.41205379  0.85057988  0.57346268     0.14800
H454        H  0.40841788  0.58562341  0.10603492     0.14800
H455        H  0.34352699  0.57399591  0.07696560     0.14800
H456        H  0.08038008  0.98259573  0.99559291     0.13100
H457        H  0.05666832  0.54149631  0.02933786     0.13100
H458        H  0.32584487  0.92341245  0.43587473     0.13100
H459        H  0.31036433  0.99168308  0.42835955     0.13100
H460        H  0.44970504  0.95099246  0.46840619     0.26400
H461        H  0.43140849  0.51821286  0.98038552     0.26400
N462        N  0.01152453  0.58691691  0.09851330    -0.03200
C463        C  0.00892335  0.59399297  0.15237808    -0.00600
C464        C  0.97769172  0.57368071  0.18949100    -0.23500
C465        C  0.46167489  0.55336263  0.15795921    -0.23700
C466        C  0.48256169  0.56210511  0.10168410    -0.00700
H467        H  0.96656235  0.57412754  0.23447035     0.13000
H468        H  0.43664226  0.53477940  0.17423247     0.13100
O469        O  0.12703661  0.76819233  0.38780076    -0.79900
O470        O  0.14023542  0.71269291  0.18303773    -0.80300
O471        O  0.18301155  0.80122883  0.24053060    -0.79900
O472        O  0.14245900  0.65135080  0.37129742    -0.79900
O473        O  0.13234651  0.76426001  0.25193175    -0.80000
O474        O  0.10976339  0.69737719  0.38994011    -0.79900
O475        O  0.12589613  0.67949877  0.26882516    -0.79900
O476        O  0.18149755  0.80133548  0.35280848    -0.79900
C477        C  0.14546671  0.79805918  0.37996834     1.09800
C478        C  0.11940713  0.68747062  0.21800197     1.09700
C479        C  0.14974457  0.79429873  0.23145204     1.09800
C480        C  0.11241033  0.66429169  0.39824211     1.09700
O481        O  0.18666517  0.67951619  0.41937800    -0.79900
O482        O  0.20776016  0.75719184  0.17709148    -0.80000
O483        O  0.24504153  0.75099831  0.34244904    -0.79900
O484        O  0.18481475  0.63575145  0.27380918    -0.79900
O485        O  0.20490379  0.68613186  0.21333461    -0.79900
O486        O  0.19837565  0.74885257  0.42000777    -0.79900
O487        O  0.22256739  0.67138927  0.33525129    -0.79900
O488        O  0.24882002  0.75471852  0.23140876    -0.79900
Co489      Co  0.15555449  0.72358669  0.39911807     1.51500
Co490      Co  0.16634945  0.72496026  0.23859853     1.51700
Co491      Co  0.21338242  0.77429034  0.29291883     1.51600
Co492      Co  0.17709853  0.67894628  0.30074924     1.51500
O493        O  0.17889106  0.72935685  0.31348713    -1.41800
C494        C  0.21617825  0.66598647  0.38941247     1.09700
C495        C  0.24225410  0.76319165  0.18271457     1.09800
C496        C  0.23434459  0.75142765  0.39491998     1.09700
C497        C  0.20322421  0.65185442  0.22536557     1.09700
C498        C  0.04566581  0.65380177  0.13980198    -0.26100
C499        C  0.03588471  0.61890114  0.17028101    -0.14200
C500        C  0.05278070  0.60794741  0.21751793     0.36500
C501        C  0.07841256  0.63117932  0.23234105    -0.25500
C502        C  0.08898886  0.66573642  0.20140573    -0.14800
C503        C  0.07211530  0.67711383  0.15431622     0.37600
N504        N  0.08115724  0.71238843  0.12184044    -0.89000
H505        H  0.03272059  0.66298354  0.10419810     0.18700
H506        H  0.09116044  0.62143125  0.26799247     0.18700
N507        N  0.04623191  0.57266999  0.25006518    -0.88000
H508        H  0.06430561  0.71743696  0.09157745     0.36000
H509        H  0.11024612  0.71331382  0.09860032     0.41100
H510        H  0.05213983  0.55427046  0.22221745     0.40800
H511        H  0.01719660  0.56911973  0.27335478     0.35600
C512        C  0.10221010  0.62265862  0.48852227    -0.26100
C513        C  0.08577635  0.64243319  0.44691224    -0.14200
C514        C  0.04481901  0.64322942  0.45534867     0.36500
C515        C  0.02106029  0.62446405  0.00505730    -0.25500
C516        C  0.03733785  0.60495555  0.04715975    -0.14800
C517        C  0.07853135  0.60388062  0.03866528     0.37600
N518        N  0.09717187  0.58319948  0.07898994    -0.89000
H519        H  0.13375834  0.62232687  0.48230690     0.18700
H520        H  0.98953888  0.62529964  0.01177740     0.18700
N521        N  0.02678677  0.66302376  0.41385932    -0.88000
H522        H  0.11484953  0.56532688  0.05769607     0.36000
H523        H  0.07675938  0.56738925  0.11175395     0.41100
H524        H  0.03724156  0.65440549  0.37483601     0.40800
H525        H  0.03537295  0.69066350  0.90921131     0.35600
C526        C  0.22184817  0.60611484  0.09834613    -0.26100
C527        C  0.25023004  0.58283207  0.11121570    -0.14200
C528        C  0.26472672  0.58371799  0.16011002     0.36500
C529        C  0.25046491  0.60802919  0.19561224    -0.25500
C530        C  0.22215035  0.63131321  0.18277853    -0.14800
C531        C  0.20821325  0.63114659  0.13321578     0.37600
N532        N  0.17923050  0.65532618  0.11986612    -0.89000
H533        H  0.21041601  0.60471884  0.06118778     0.18700
H534        H  0.26108115  0.60830841  0.23370684     0.18700
N535        N  0.29315930  0.55938463  0.17458369    -0.88000
H536        H  0.17074547  0.65041799  0.08345231     0.36000
H537        H  0.19251089  0.68091659  0.10936682     0.41100
H538        H  0.31736746  0.57421517  0.17794951     0.40800
H539        H  0.28102868  0.54429317  0.21480861     0.35600
C540        C  0.26453334  0.58111514  0.44091162    -0.26100
C541        C  0.28417349  0.59181680  0.97982536    -0.14200
C542        C  0.28462313  0.62864105  0.98401015     0.36500
C543        C  0.26178777  0.65218977  0.45509179    -0.25500
C544        C  0.24109674  0.64086910  0.41804235    -0.14800
C545        C  0.24367241  0.60508331  0.40956356     0.37600
N546        N  0.22275531  0.59249805  0.37213849    -0.89000
H547        H  0.26331717  0.55314942  0.43784555     0.18700
H548        H  0.26020091  0.67949705  0.46206044     0.18700
N549        N  0.30710488  0.64306187  0.01783496    -0.88000
H550        H  0.22581868  0.56519035  0.37289394     0.36000
H551        H  0.23621215  0.60482169  0.33066136     0.41100
H552        H  0.32285534  0.62350152  0.03639876     0.40800
H553        H  0.28782844  0.65274278  0.05085003     0.35600
C554        C  0.10910875  0.80291085  0.16075294    -0.26100
C555        C  0.13620624  0.81747501  0.18598652    -0.14200
C556        C  0.15336873  0.85185057  0.16212237     0.36500
C557        C  0.14163418  0.87120863  0.11546950    -0.25500
C558        C  0.11082125  0.85827640  0.09571140    -0.14800
C559        C  0.09612000  0.82296491  0.11634907     0.37600
N560        N  0.06622818  0.80747036  0.09569124    -0.89000
H561        H  0.09701091  0.77594647  0.17641323     0.18700
H562        H  0.15243871  0.89859869  0.09999108     0.18700
N563        N  0.18087290  0.86782011  0.18704978    -0.88000
H564        H  0.07741123  0.80646595  0.05253243     0.36000
H565        H  0.04197922  0.82336629  0.10017202     0.41100
H566        H  0.16601805  0.87138931  0.22799222     0.40800
H567        H  0.19072981  0.89311395  0.16399957     0.35600
C568        C  0.08452553  0.82689861  0.42683587    -0.26100
C569        C  0.12563561  0.82803160  0.40792776    -0.14200
C570        C  0.14687256  0.85597946  0.42119903     0.36500
C571        C  0.12718995  0.87861592  0.45822688    -0.25500
C572        C  0.08639414  0.87542502  0.48116736    -0.14800
C573        C  0.06495707  0.85034867  0.46223999     0.37600
N574        N  0.02343994  0.84659583  0.48186502    -0.89000
H575        H  0.06727859  0.80658286  0.41607223     0.18700
H576        H  0.14426750  0.89811593  0.97123161     0.18700
N577        N  0.18857475  0.86039204  0.39960281    -0.88000
H578        H  0.01594763  0.82049522  0.50318735     0.36000
H579        H  0.01139328  0.85060138  0.44614361     0.41100
H580        H  0.19967855  0.88140990  0.41469191     0.40800
H581        H  0.19408497  0.86819141  0.85469042     0.35600
C582        C  0.33658483  0.79360052  0.06902065    -0.26100
C583        C  0.33071236  0.82999626  0.05232466    -0.14200
C584        C  0.29778797  0.84478295  0.08380939     0.36500
C585        C  0.26902799  0.82209885  0.12496606    -0.25500
C586        C  0.27296521  0.78505443  0.13691976    -0.14800
C587        C  0.30843541  0.77103162  0.11057134     0.37600
N588        N  0.31652937  0.73403158  0.12329778    -0.89000
H589        H  0.36205699  0.78195977  0.04570688     0.18700
H590        H  0.24315373  0.83336986  0.14758751     0.18700
N591        N  0.29201332  0.88216536  0.07066180    -0.88000
H592        H  0.31889028  0.72331924  0.08597044     0.36000
H593        H  0.29359808  0.71964406  0.15392045     0.41100
H594        H  0.31323262  0.89580111  0.58201828     0.40800
H595        H  0.26527519  0.88853481  0.09533292     0.35600
C596        C  0.25213163  0.79147581  0.45196227    -0.26100
C597        C  0.26305432  0.76313813  0.42289429    -0.14200
C598        C  0.30290636  0.75445461  0.40837225     0.36500
C599        C  0.33088144  0.77571095  0.42120714    -0.25500
C600        C  0.31998941  0.80582552  0.44571376    -0.14800
C601        C  0.28038404  0.81396777  0.46074169     0.37600
N602        N  0.26907692  0.84717310  0.47819260    -0.89000
H603        H  0.22193393  0.79911951  0.46119165     0.18700
H604        H  0.36155417  0.76996934  0.40881611     0.18700
N605        N  0.31634184  0.72594699  0.37789419    -0.88000
H606        H  0.24650624  0.84188233  0.51528352     0.36000
H607        H  0.25758580  0.86207256  0.44644965     0.41100
H608        H  0.29319534  0.71140263  0.37115583     0.40800
H609        H  0.33007178  0.70822812  0.40373218     0.35600
N610        N  0.35034675  0.84690479  0.49387852    -0.03200
C611        C  0.37701572  0.87475079  0.47304762    -0.00600
C612        C  0.39520187  0.87450448  0.91695850    -0.23500
C613        C  0.37791306  0.84710781  0.90079311    -0.23700
C614        C  0.35047077  0.83122963  0.94859362    -0.00700
H615        H  0.41667210  0.89406611  0.88927332     0.13000
H616        H  0.38277836  0.84101293  0.85804289     0.13100
N617        N  0.07004070  0.89098171  0.53217340    -0.03200
C618        C  0.04285838  0.91625741  0.54343575    -0.00600
C619        C  0.03964163  0.92431020  0.59744395    -0.23500
C620        C  0.06546772  0.90471974  0.62069852    -0.23700
C621        C  0.08367867  0.88497354  0.58057113    -0.00700
H622        H  0.01978740  0.94239314  0.61804824     0.13000
H623        H  0.06986374  0.90402075  0.66328329     0.13100
N624        N  0.29212395  0.56484454  0.52497512    -0.03200
C625        C  0.30760300  0.53267937  0.51709157    -0.00600
C626        C  0.28611947  0.50555309  0.55798502    -0.23500
C627        C  0.25908145  0.52100540  0.59470416    -0.23700
C628        C  0.26405635  0.55686684  0.57442374    -0.00700
H629        H  0.29359790  0.97798478  0.56610313     0.13000
H630        H  0.24095881  0.50800818  0.63524853     0.13100
N631        N  0.44895568  0.92821805  0.99933892    -0.36400
N632        N  0.48566223  0.99103005  0.51439981    -0.56900
N633        N  0.41724612  0.53354960  0.51033177    -0.36400
N634        N  0.37955925  0.96875597  0.99601771    -0.56900
C635        C  0.47925891  0.91544632  0.02026345     0.27200
C636        C  0.41898992  0.90374319  0.02002515     0.27200
C637        C  0.43334022  0.54931826  0.54631536     0.27200
C638        C  0.37884225  0.54153155  0.51918644     0.27200
C639        C  0.01752118  0.97135885  0.50089673     0.35800
C640        C  0.99795536  0.52175935  0.52723632     0.35800
C641        C  0.36944695  0.93760114  0.98258042     0.35800
C642        C  0.35752252  0.99426487  0.47413041     0.35800
C643        C  0.46802904  0.88267487  0.05542572    -0.21700
C644        C  0.43018505  0.87479292  0.05366245    -0.21700
C645        C  0.40534142  0.56933276  0.57547349    -0.21700
C646        C  0.37123982  0.56407959  0.55896542    -0.21700
C647        C  0.05066968  0.99104403  0.50143902    -0.22700
C648        C  0.03810388  0.52193636  0.52029902    -0.22700
C649        C  0.34074359  0.94256078  0.95203107    -0.22700
C650        C  0.33295666  0.97812171  0.94711038    -0.22700
C651        C  0.01585601  0.93376227  0.01020278    -0.18100
C652        C  0.38477270  0.90468343  0.00052657    -0.18100
C653        C  0.35022413  0.52634293  0.49576586    -0.18100
C654        C  0.47233072  0.54588036  0.55420183    -0.18100
H655        H  0.98537477  0.86596407  0.07945939     0.14800
H656        H  0.41287607  0.85061819  0.07435580     0.14800
H657        H  0.40856682  0.58552341  0.60664207     0.14800
H658        H  0.34371155  0.57434046  0.57703997     0.14800
H659        H  0.08012781  0.98184283  0.49698137     0.13100
H660        H  0.05659204  0.54077396  0.53092673     0.13100
H661        H  0.32576358  0.92243032  0.93729282     0.13100
H662        H  0.30984963  0.99061555  0.92951071     0.13100
H663        H  0.44989138  0.95086843  0.96840781     0.26400
H664        H  0.43149654  0.51834540  0.48066667     0.26400
N665        N  0.01166533  0.58669115  0.59891535    -0.03200
C666        C  0.00915976  0.59379354  0.65275637    -0.00600
C667        C  0.97797196  0.57346893  0.68997336    -0.23500
C668        C  0.46189142  0.55312316  0.65854797    -0.23700
C669        C  0.48268686  0.56186213  0.60223732    -0.00700
H670        H  0.96688253  0.57394760  0.73494828     0.13000
H671        H  0.43686786  0.53453663  0.67491213     0.13100
O672        O  0.12722692  0.76826800  0.88760648    -0.79900
O673        O  0.14038715  0.71270263  0.68316366    -0.80300
O674        O  0.18334281  0.80128232  0.74038338    -0.79900
O675        O  0.14269774  0.65144919  0.87142131    -0.79900
O676        O  0.13265276  0.76430803  0.75197051    -0.80000
O677        O  0.11001788  0.69751395  0.88972899    -0.79900
O678        O  0.12607803  0.67955790  0.76898547    -0.79900
O679        O  0.18168815  0.80141223  0.85266496    -0.79900
C680        C  0.14563872  0.79814122  0.87974855     1.09800
C681        C  0.11954193  0.68751586  0.71818820     1.09700
C682        C  0.15005131  0.79433831  0.73141818     1.09800
C683        C  0.11262719  0.66443641  0.89819366     1.09700
O684        O  0.18690698  0.67962892  0.91939522    -0.79900
O685        O  0.20800587  0.75712842  0.67707940    -0.80000
O686        O  0.24525455  0.75112154  0.84250480    -0.79900
O687        O  0.18493345  0.63574267  0.77408259    -0.79900
O688        O  0.20503753  0.68604435  0.71341211    -0.79900
O689        O  0.19851169  0.74898293  0.91999587    -0.79900
O690        O  0.22280202  0.67146480  0.83528619    -0.79900
O691        O  0.24915838  0.75484376  0.73127510    -0.79900
Co692      Co  0.15576605  0.72369257  0.89903228     1.51500
Co693      Co  0.16658234  0.72496257  0.73864488     1.51700
Co694      Co  0.21365908  0.77437484  0.79283560     1.51600
Co695      Co  0.17732048  0.67899459  0.80083435     1.51500
O696        O  0.17918851  0.72941721  0.81344411    -1.41800
C697        C  0.21641329  0.66606923  0.88944374     1.09700
C698        C  0.24251397  0.76320961  0.68259047     1.09800
C699        C  0.23449005  0.75154993  0.89498183     1.09700
C700        C  0.20329077  0.65176680  0.72556551     1.09700
C701        C  0.04591443  0.65364437  0.63995058    -0.26100
C702        C  0.03610761  0.61877698  0.67057094    -0.14200
C703        C  0.05291947  0.60794676  0.71793866     0.36500
C704        C  0.07844715  0.63126638  0.73278248    -0.25500
C705        C  0.08908595  0.66576935  0.70167539    -0.14800
C706        C  0.07231102  0.67702800  0.65444195     0.37600
N707        N  0.08140314  0.71225047  0.62178451    -0.89000
H708        H  0.03303689  0.66274352  0.60424844     0.18700
H709        H  0.09111439  0.62160268  0.76854963     0.18700
N710        N  0.04645897  0.57268525  0.75055087    -0.88000
H711        H  0.06464533  0.71720489  0.59138741     0.36000
H712        H  0.11052685  0.71314703  0.59869310     0.41100
H713        H  0.05246395  0.55426354  0.72275054     0.40800
H714        H  0.01742834  0.56906788  0.77383772     0.35600
C715        C  0.10222661  0.62273826  0.98839790    -0.26100
C716        C  0.08589245  0.64266560  0.94681733    -0.14200
C717        C  0.04494749  0.64371773  0.95526775     0.36500
C718        C  0.02102374  0.62399016  0.50524569    -0.25500
C719        C  0.03739858  0.60468132  0.54742310    -0.14800
C720        C  0.07860534  0.60374202  0.53882973     0.37600
N721        N  0.09736028  0.58320662  0.57914846    -0.89000
H722        H  0.13376687  0.62224702  0.98219900     0.18700
H723        H  0.98949272  0.62468130  0.51197831     0.18700
N724        N  0.02701559  0.66379748  0.91391221    -0.88000
H725        H  0.11512418  0.56538068  0.55786770     0.36000
H726        H  0.07702699  0.56734801  0.61195920     0.41100
H727        H  0.03739992  0.65530753  0.87476760     0.40800
H728        H  0.03500739  0.68994238  0.40889543     0.35600
C729        C  0.22159026  0.60593106  0.59864811    -0.26100
C730        C  0.25001519  0.58267070  0.61139713    -0.14200
C731        C  0.26455049  0.58350061  0.66026476     0.36500
C732        C  0.25037078  0.60782284  0.69577889    -0.25500
C733        C  0.22205202  0.63113004  0.68302835    -0.14800
C734        C  0.20796492  0.63091554  0.63360245     0.37600
N735        N  0.17886203  0.65501280  0.62045566    -0.89000
H736        H  0.21013078  0.60456446  0.56150369     0.18700
H737        H  0.26108935  0.60811533  0.73377632     0.18700
N738        N  0.29296762  0.55912361  0.67466157    -0.88000
H739        H  0.17023285  0.65003786  0.58418646     0.36000
H740        H  0.19209158  0.68062556  0.60980390     0.41100
H741        H  0.31719920  0.57391496  0.67803750     0.40800
H742        H  0.28083704  0.54401369  0.71487333     0.35600
C743        C  0.26477900  0.58110939  0.94060475    -0.26100
C744        C  0.28400390  0.59193261  0.47997518    -0.14200
C745        C  0.28439568  0.62876698  0.48406958     0.36500
C746        C  0.26199890  0.65212420  0.95515687    -0.25500
C747        C  0.24130521  0.64089252  0.91804383    -0.14800
C748        C  0.24395437  0.60515298  0.90931142     0.37600
N749        N  0.22316924  0.59268958  0.87163635    -0.89000
H750        H  0.26358566  0.55316939  0.93736697     0.18700
H751        H  0.26043711  0.67941293  0.96222453     0.18700
N752        N  0.30677756  0.64325258  0.51796082    -0.88000
H753        H  0.22632104  0.56541196  0.87214025     0.36000
H754        H  0.23668611  0.60515608  0.83027257     0.41100
H755        H  0.32249101  0.62371920  0.53666948     0.40800
H756        H  0.28742200  0.65294564  0.55088624     0.35600
C757        C  0.10962024  0.80280402  0.66050702    -0.26100
C758        C  0.13644011  0.81750088  0.68604789    -0.14200
C759        C  0.15322368  0.85205262  0.66265360     0.36500
C760        C  0.14131651  0.87147303  0.61619643    -0.25500
C761        C  0.11076181  0.85833381  0.59610414    -0.14800
C762        C  0.09649085  0.82286331  0.61626119     0.37600
N763        N  0.06686181  0.80718519  0.59531418    -0.89000
H764        H  0.09783592  0.77571765  0.67581594     0.18700
H765        H  0.15177602  0.89898257  0.60111601     0.18700
N766        N  0.18050324  0.86810118  0.68787268    -0.88000
H767        H  0.07816817  0.80638992  0.55211625     0.36000
H768        H  0.04240505  0.82282829  0.59991260     0.41100
H769        H  0.16555514  0.87133696  0.72894603     0.40800
H770        H  0.19006105  0.89354557  0.66519024     0.35600
C771        C  0.08466382  0.82695483  0.92663651    -0.26100
C772        C  0.12577524  0.82812853  0.90762249    -0.14200
C773        C  0.14700972  0.85614457  0.92071359     0.36500
C774        C  0.12734274  0.87882179  0.95766267    -0.25500
C775        C  0.08656682  0.87558839  0.98073592    -0.14800
C776        C  0.06510692  0.85044691  0.96197628     0.37600
N777        N  0.02358595  0.84671924  0.98162930    -0.89000
H778        H  0.06741514  0.80658909  0.91599559     0.18700
H779        H  0.14410827  0.89785233  0.47192597     0.18700
N780        N  0.18870629  0.86057452  0.89904393    -0.88000
H781        H  0.01607867  0.82063755  0.00303116     0.36000
H782        H  0.01152814  0.85068256  0.94591791     0.41100
H783        H  0.19983384  0.88160575  0.91406953     0.40800
H784        H  0.19399500  0.86804141  0.35525583     0.35600
C785        C  0.33660320  0.79379217  0.56840999    -0.26100
C786        C  0.33060624  0.83016224  0.55169320    -0.14200
C787        C  0.29760256  0.84486116  0.58317782     0.36500
C788        C  0.26899898  0.82213270  0.62455211    -0.25500
C789        C  0.27310788  0.78511475  0.63662865    -0.14800
C790        C  0.30855098  0.77115960  0.61002464     0.37600
N791        N  0.31668387  0.73415152  0.62247475    -0.89000
H792        H  0.36208286  0.78220196  0.54501509     0.18700
H793        H  0.24308446  0.83334866  0.64721155     0.18700
N794        N  0.29157350  0.88218150  0.56981820    -0.88000
H795        H  0.31893886  0.72353705  0.58508242     0.36000
H796        H  0.29379760  0.71971475  0.65312865     0.41100
H797        H  0.31374147  0.89557962  0.08303299     0.40800
H798        H  0.26479356  0.88846539  0.59448217     0.35600
C799        C  0.25217503  0.79140980  0.95242439    -0.26100
C800        C  0.26314802  0.76318749  0.92309840    -0.14200
C801        C  0.30300137  0.75454053  0.90853866     0.36500
C802        C  0.33094580  0.77576983  0.92147306    -0.25500
C803        C  0.32002185  0.80579636  0.94621422    -0.14800
C804        C  0.28039373  0.81386048  0.96140087     0.37600
N805        N  0.26900935  0.84694557  0.97924985    -0.89000
H806        H  0.22196219  0.79900946  0.96173195     0.18700
H807        H  0.36162527  0.77006356  0.90901656     0.18700
N808        N  0.31646362  0.72608843  0.87794363    -0.88000
H809        H  0.24650617  0.84147687  0.01640372     0.36000
H810        H  0.25737778  0.86191951  0.94772504     0.41100
H811        H  0.29332237  0.71150105  0.87128124     0.40800
H812        H  0.33027038  0.70837891  0.90368656     0.35600
N813        N  0.85048642  0.34673614  0.99454377    -0.03200
C814        C  0.87756816  0.37426497  0.97394801    -0.00600
C815        C  0.89453964  0.37506880  0.41600041    -0.23500
C816        C  0.87756744  0.34741448  0.40002044    -0.23700
C817        C  0.85041533  0.33131012  0.44798385    -0.00700
H818        H  0.91578216  0.39478178  0.38820088     0.13000
H819        H  0.88238846  0.34130702  0.35728236     0.13100
N820        N  0.57030550  0.39118292  0.03172383    -0.03200
C821        C  0.54357881  0.41685774  0.04270166    -0.00600
C822        C  0.54070805  0.42515214  0.09649320    -0.23500
C823        C  0.56629651  0.40529707  0.11987586    -0.23700
C824        C  0.58403328  0.38517001  0.08003556    -0.00700
H825        H  0.52113871  0.44348027  0.11696272     0.13000
H826        H  0.57082817  0.40467482  0.16237150     0.13100
N827        N  0.79213318  0.06465174  0.02485844    -0.03200
C828        C  0.80744543  0.03239784  0.01709827    -0.00600
C829        C  0.78594302  0.00541347  0.05826964    -0.23500
C830        C  0.75910147  0.02104383  0.09500095    -0.23700
C831        C  0.76416408  0.05687105  0.07445317    -0.00700
H832        H  0.79332752  0.47782946  0.06656505     0.13000
H833        H  0.74104399  0.00818176  0.13568513     0.13100
N834        N  0.94859539  0.42823587  0.49919285    -0.36400
N835        N  0.98577742  0.49124264  0.01399762    -0.56900
N836        N  0.91714864  0.03343004  0.01001331    -0.36400
N837        N  0.87948922  0.46911966  0.49569434    -0.56900
C838        C  0.97875775  0.41523742  0.52026020     0.27200
C839        C  0.91850885  0.40384733  0.51951211     0.27200
C840        C  0.93325363  0.04937452  0.04581434     0.27200
C841        C  0.87869810  0.04126613  0.01902279     0.27200
C842        C  0.51773156  0.47172505  0.00028065     0.35800
C843        C  0.49798793  0.02210119  0.02650728     0.35800
C844        C  0.86930457  0.43810787  0.48188401     0.35800
C845        C  0.85730690  0.49369118  0.97460451     0.35800
C846        C  0.96731310  0.38240102  0.55512297    -0.21700
C847        C  0.92948992  0.37472632  0.55303580    -0.21700
C848        C  0.90520868  0.06933345  0.07498833    -0.21700
C849        C  0.87108054  0.06386543  0.05871714    -0.21700
C850        C  0.55083941  0.49162483  0.00033477    -0.22700
C851        C  0.53817439  0.02250818  0.01911963    -0.22700
C852        C  0.84082878  0.44337021  0.45096616    -0.22700
C853        C  0.83328047  0.47897694  0.44616742    -0.22700
C854        C  0.51542199  0.43338927  0.51061448    -0.18100
C855        C  0.88436588  0.40505279  0.49980051    -0.18100
C856        C  0.85004494  0.02590911  0.99586442    -0.18100
C857        C  0.97228963  0.04613241  0.05356689    -0.18100
H858        H  0.48450174  0.36552291  0.57920512     0.14800
H859        H  0.91205204  0.35058002  0.57346502     0.14800
H860        H  0.90841681  0.08562306  0.10603433     0.14800
H861        H  0.84352620  0.07399557  0.07696426     0.14800
H862        H  0.58038011  0.48259543  0.99559163     0.13100
H863        H  0.55666813  0.04149863  0.02933160     0.13100
H864        H  0.82584189  0.42341226  0.43587879     0.13100
H865        H  0.81036219  0.49168303  0.42836244     0.13100
H866        H  0.94970319  0.45099204  0.46840674     0.26400
H867        H  0.93140778  0.01821215  0.98038550     0.26400
N868        N  0.51152341  0.08691653  0.09851373    -0.03200
C869        C  0.50892192  0.09399236  0.15237865    -0.00600
C870        C  0.47769015  0.07368002  0.18949108    -0.23500
C871        C  0.96167414  0.05336318  0.15795888    -0.23700
C872        C  0.98256081  0.06210543  0.10168364    -0.00700
H873        H  0.46656069  0.07412656  0.23447052     0.13000
H874        H  0.93664159  0.03477988  0.17423249     0.13100
O875        O  0.62703651  0.26819116  0.38780073    -0.79900
O876        O  0.64023625  0.21269066  0.18303771    -0.80300
O877        O  0.68301236  0.30122701  0.24052998    -0.79900
O878        O  0.64245939  0.15134935  0.37129820    -0.79900
O879        O  0.63234721  0.26425836  0.25193059    -0.80000
O880        O  0.60976378  0.19737587  0.38993991    -0.79900
O881        O  0.62589640  0.17949697  0.26882546    -0.79900
O882        O  0.68149745  0.30133427  0.35280809    -0.79900
C883        C  0.64546665  0.29805798  0.37996830     1.09800
C884        C  0.61940764  0.18746858  0.21800211     1.09700
C885        C  0.64974536  0.29429706  0.23145128     1.09800
C886        C  0.61241078  0.16429039  0.39824277     1.09700
O887        O  0.68666537  0.17951543  0.41937825    -0.79900
O888        O  0.70776164  0.25718985  0.17709162    -0.80000
O889        O  0.74504151  0.25099707  0.34245024    -0.79900
O890        O  0.68481514  0.13574995  0.27380962    -0.79900
O891        O  0.70490469  0.18613031  0.21333533    -0.79900
O892        O  0.69837531  0.24885176  0.42000841    -0.79900
O893        O  0.72256761  0.17138825  0.33525163    -0.79900
O894        O  0.74882097  0.25471667  0.23140974    -0.79900
Co895      Co  0.65555452  0.22358564  0.39911822     1.51500
Co896      Co  0.66635022  0.22495858  0.23859843     1.51700
Co897      Co  0.71338282  0.27428883  0.29291909     1.51600
Co898      Co  0.67709874  0.17894481  0.30074969     1.51500
O899        O  0.67889130  0.22935549  0.31348732    -1.41800
C900        C  0.71617850  0.16598577  0.38941280     1.09700
C901        C  0.74225556  0.26318952  0.18271517     1.09800
C902        C  0.73434432  0.25142675  0.39492106     1.09700
C903        C  0.70322460  0.15185292  0.22536598     1.09700
C904        C  0.54566431  0.15380106  0.13980385    -0.26100
C905        C  0.53588350  0.11890016  0.17028191    -0.14200
C906        C  0.55278040  0.10794567  0.21751766     0.36500
C907        C  0.57841327  0.13117700  0.23234016    -0.25500
C908        C  0.58898912  0.16573447  0.20140593    -0.14800
C909        C  0.57211433  0.17711269  0.15431793     0.37600
N910        N  0.58115540  0.21238779  0.12184379    -0.89000
H911        H  0.53271837  0.16298338  0.10420091     0.18700
H912        H  0.59116198  0.12142835  0.26799050     0.18700
N913        N  0.54623104  0.07266818  0.25006460    -0.88000
H914        H  0.56430280  0.21743695  0.09158211     0.36000
H915        H  0.61024394  0.21331375  0.09860222     0.41100
H916        H  0.55213806  0.05426876  0.22221664     0.40800
H917        H  0.51719574  0.06911848  0.27335450     0.35600
C918        C  0.60221030  0.12265796  0.48852396    -0.26100
C919        C  0.58577678  0.14243227  0.44691341    -0.14200
C920        C  0.54481947  0.14322879  0.45534971     0.36500
C921        C  0.52105932  0.12446453  0.00505862    -0.25500
C922        C  0.53733679  0.10495556  0.04716072    -0.14800
C923        C  0.57853025  0.10388076  0.03866673     0.37600
N924        N  0.59717056  0.08319934  0.07899138    -0.89000
H925        H  0.63375852  0.12232585  0.48230856     0.18700
H926        H  0.48953792  0.12530021  0.01177867     0.18700
N927        N  0.52678747  0.16302208  0.41385914    -0.88000
H928        H  0.61484867  0.06532715  0.05769713     0.36000
H929        H  0.57675802  0.06738860  0.11175455     0.41100
H930        H  0.53724216  0.15440263  0.37483681     0.40800
H931        H  0.53537221  0.19066601  0.90921711     0.35600
C932        C  0.72184611  0.10611335  0.09834677    -0.26100
C933        C  0.75022832  0.08283067  0.11121524    -0.14200
C934        C  0.76472613  0.08371674  0.16010855     0.36500
C935        C  0.75046480  0.10802778  0.19561126    -0.25500
C936        C  0.72215007  0.13131181  0.18277850    -0.14800
C937        C  0.70821228  0.13114544  0.13321625     0.37600
N938        N  0.67923045  0.15532602  0.11986641    -0.89000
H939        H  0.71041346  0.10471749  0.06118879     0.18700
H940        H  0.76108166  0.10830696  0.23370538     0.18700
N941        N  0.79315948  0.05938380  0.17458067    -0.88000
H942        H  0.67074488  0.15041803  0.08345289     0.36000
H943        H  0.69251195  0.18091600  0.10936646     0.41100
H944        H  0.81736764  0.07421469  0.17794564     0.40800
H945        H  0.78102974  0.04429216  0.21480576     0.35600
C946        C  0.76453279  0.08111454  0.44091308    -0.26100
C947        C  0.78417392  0.09181737  0.97982510    -0.14200
C948        C  0.78462151  0.12864123  0.98401316     0.36500
C949        C  0.76178772  0.15218932  0.45509243    -0.25500
C950        C  0.74109687  0.14086857  0.41804286    -0.14800
C951        C  0.74367235  0.10508276  0.40956436     0.37600
N952        N  0.72275565  0.09249758  0.37213875    -0.89000
H953        H  0.76331641  0.05314878  0.43784734     0.18700
H954        H  0.76020083  0.17949660  0.46206101     0.18700
N955        N  0.80710126  0.14306157  0.01784100    -0.88000
H956        H  0.72581854  0.06518980  0.37289481     0.36000
H957        H  0.73621320  0.10482085  0.33066162     0.41100
H958        H  0.82285120  0.12350115  0.03640554     0.40800
H959        H  0.78782361  0.15274193  0.05085550     0.35600
C960        C  0.60910956  0.30291016  0.16075211    -0.26100
C961        C  0.63620681  0.31747389  0.18598656    -0.14200
C962        C  0.65336889  0.35184975  0.16212399     0.36500
C963        C  0.64163420  0.37120853  0.11547180    -0.25500
C964        C  0.61082158  0.35827660  0.09571265    -0.14800
C965        C  0.59612087  0.32296478  0.11634860     0.37600
N966        N  0.56623006  0.30747017  0.09568888    -0.89000
H967        H  0.59701214  0.27594555  0.17641112     0.18700
H968        H  0.65243848  0.39859874  0.09999461     0.18700
N969        N  0.68087283  0.36781878  0.18705237    -0.88000
H970        H  0.57741409  0.30646614  0.05253018     0.36000
H971        H  0.54198083  0.32336579  0.10016904     0.41100
H972        H  0.66601790  0.37138710  0.22799522     0.40800
H973        H  0.69072944  0.39311300  0.16400336     0.35600
C974        C  0.58452561  0.32689733  0.42683704    -0.26100
C975        C  0.62563568  0.32803044  0.40792796    -0.14200
C976        C  0.64687280  0.35597859  0.42119828     0.36500
C977        C  0.62719032  0.37861576  0.45822497    -0.25500
C978        C  0.58639455  0.37542501  0.48116590    -0.14800
C979        C  0.56495735  0.35034789  0.46224043     0.37600
N980        N  0.52344030  0.34659481  0.48186699    -0.89000
H981        H  0.56727853  0.30658112  0.41607473     0.18700
H982        H  0.64426665  0.39811636  0.97123305     0.18700
N983        N  0.68857507  0.36039065  0.39960261    -0.88000
H984        H  0.51594843  0.32049442  0.50319054     0.36000
H985        H  0.51139294  0.35059947  0.44614620     0.41100
H986        H  0.69967890  0.38140882  0.41469087     0.40800
H987        H  0.69408453  0.36819184  0.85469238     0.35600
C988        C  0.83658630  0.29359854  0.06902017    -0.26100
C989        C  0.83071376  0.32999431  0.05232439    -0.14200
C990        C  0.79778956  0.34478090  0.08380990     0.36500
C991        C  0.76902977  0.32209672  0.12496687    -0.25500
C992        C  0.77296701  0.28505230  0.13692051    -0.14800
C993        C  0.80843730  0.27102962  0.11057178     0.37600
N994        N  0.81653181  0.23402978  0.12329901    -0.89000
H995        H  0.86205837  0.28195783  0.04570607     0.18700
H996        H  0.74315555  0.33336771  0.14758859     0.18700
N997        N  0.79201479  0.38216331  0.07066282    -0.88000
H998        H  0.81889250  0.22331689  0.08597222     0.36000
H999        H  0.79360090  0.21964234  0.15392252     0.41100
H1000       H  0.81323197  0.39580104  0.58201859     0.40800
H1001       H  0.76527677  0.38853263  0.09533436     0.35600
C1002       C  0.75213083  0.29147516  0.45196341    -0.26100
C1003       C  0.76305387  0.26313750  0.42289547    -0.14200
C1004       C  0.80290612  0.25445468  0.40837267     0.36500
C1005       C  0.83088107  0.27571201  0.42120582    -0.25500
C1006       C  0.81998859  0.30582660  0.44571198    -0.14800
C1007       C  0.78038304  0.31396799  0.46074128     0.37600
N1008       N  0.76907546  0.34717324  0.47819213    -0.89000
H1009       H  0.72193291  0.29911819  0.46119373     0.18700
H1010       H  0.86155394  0.26997097  0.40881416     0.18700
N1011       N  0.81634186  0.22594672  0.37789559    -0.88000
H1012       H  0.74650514  0.34188227  0.51528354     0.36000
H1013       H  0.75758374  0.36207227  0.44644956     0.41100
H1014       H  0.79319547  0.21140182  0.37115805     0.40800
H1015       H  0.83007221  0.20822846  0.40373387     0.35600
N1016       N  0.85034573  0.34690482  0.49387831    -0.03200
C1017       C  0.87701412  0.37475132  0.47304845    -0.00600
C1018       C  0.89520050  0.37450546  0.91695694    -0.23500
C1019       C  0.87791269  0.34710823  0.90079162    -0.23700
C1020       C  0.85047199  0.33122847  0.94859281    -0.00700
H1021       H  0.91666929  0.39406820  0.88927138     0.13000
H1022       H  0.88277718  0.34101420  0.85804095     0.13100
N1023       N  0.57004151  0.39098203  0.53217168    -0.03200
C1024       C  0.54285980  0.41625828  0.54343401    -0.00600
C1025       C  0.53964353  0.42431095  0.59744220    -0.23500
C1026       C  0.56546911  0.40471972  0.62069680    -0.23700
C1027       C  0.58367938  0.38497325  0.58056941    -0.00700
H1028       H  0.51978965  0.44239406  0.61804671     0.13000
H1029       H  0.56986514  0.40402035  0.66328164     0.13100
N1030       N  0.79212399  0.06484416  0.52497608    -0.03200
C1031       C  0.80760276  0.03267891  0.51709214    -0.00600
C1032       C  0.78611970  0.00555278  0.55798636    -0.23500
C1033       C  0.75908255  0.02100526  0.59470647    -0.23700
C1034       C  0.76405722  0.05686669  0.57442571    -0.00700
H1035       H  0.79359585  0.47798481  0.56610462     0.13000
H1036       H  0.74096054  0.00800813  0.63525138     0.13100
N1037       N  0.94895503  0.42821722  0.99934118    -0.36400
N1038       N  0.98566124  0.49102963  0.51439936    -0.56900
N1039       N  0.91724597  0.03354903  0.51033136    -0.36400
N1040       N  0.87955945  0.46875555  0.99601831    -0.56900
C1041       C  0.97925793  0.41544500  0.02026607     0.27200
C1042       C  0.91898915  0.40374229  0.02002590     0.27200
C1043       C  0.93334014  0.04931780  0.54631479     0.27200
C1044       C  0.87884210  0.04153100  0.51918611     0.27200
C1045       C  0.51752159  0.47135967  0.50089612     0.35800
C1046       C  0.49795603  0.02175979  0.52723707     0.35800
C1047       C  0.86944737  0.43760109  0.98257966     0.35800
C1048       C  0.85752088  0.49426480  0.47413243     0.35800
C1049       C  0.96802768  0.38267320  0.05542712    -0.21700
C1050       C  0.93018389  0.37479153  0.05366262    -0.21700
C1051       C  0.90534141  0.06933243  0.57547275    -0.21700
C1052       C  0.87123977  0.06407912  0.55896500    -0.21700
C1053       C  0.55067005  0.49104513  0.50143771    -0.22700
C1054       C  0.53810444  0.02193679  0.52030085    -0.22700
C1055       C  0.84074553  0.44256160  0.95202766    -0.22700
C1056       C  0.83295940  0.47812271  0.94710659    -0.22700
C1057       C  0.51585545  0.43376199  0.01020469    -0.18100
C1058       C  0.88477227  0.40468303  0.00052634    -0.18100
C1059       C  0.85022381  0.02634239  0.49576579    -0.18100
C1060       C  0.97233057  0.04587981  0.55420159    -0.18100
H1061       H  0.48537364  0.36596394  0.07946151     0.14800
H1062       H  0.91287483  0.35061666  0.07435474     0.14800
H1063       H  0.90856684  0.08552319  0.60664116     0.14800
H1064       H  0.84371153  0.07433989  0.57703999     0.14800
H1065       H  0.58012834  0.48184422  0.49697928     0.13100
H1066       H  0.55659227  0.04077433  0.53092917     0.13100
H1067       H  0.82576610  0.42243165  0.93728753     0.13100
H1068       H  0.80985358  0.49061723  0.92950480     0.13100
H1069       H  0.94989113  0.45086794  0.96841059     0.26400
H1070       H  0.93149632  0.01834469  0.48066639     0.26400
N1071       N  0.51166497  0.08669125  0.59891700    -0.03200
C1072       C  0.50915867  0.09379343  0.65275829    -0.00600
C1073       C  0.47797046  0.07346899  0.68997451    -0.23500
C1074       C  0.96189060  0.05312316  0.65854754    -0.23700
C1075       C  0.98268657  0.06186166  0.60223712    -0.00700
H1076       H  0.46688051  0.07394764  0.73494935     0.13000
H1077       H  0.93686675  0.03453694  0.67491147     0.13100
O1078       O  0.62722622  0.26826837  0.88760877    -0.79900
O1079       O  0.64038587  0.21270161  0.68316583    -0.80300
O1080       O  0.68334008  0.30128252  0.74038535    -0.79900
O1081       O  0.64269709  0.15144977  0.87142348    -0.79900
O1082       O  0.63265061  0.26430761  0.75197165    -0.80000
O1083       O  0.61001720  0.19751456  0.88973136    -0.79900
O1084       O  0.62607716  0.17955728  0.76898789    -0.79900
O1085       O  0.68168721  0.30141274  0.85266632    -0.79900
C1086       C  0.64563791  0.29814166  0.87975030     1.09800
C1087       C  0.61954082  0.18751494  0.71819079     1.09700
C1088       C  0.65004878  0.29433814  0.73141974     1.09800
C1089       C  0.61262651  0.16443704  0.89819587     1.09700
O1090       O  0.68690670  0.17962937  0.91939658    -0.79900
O1091       O  0.70800337  0.25712889  0.67708027    -0.80000
O1092       O  0.74525374  0.25112240  0.84250429    -0.79900
O1093       O  0.68493368  0.13574301  0.77408430    -0.79900
O1094       O  0.70503713  0.18604477  0.71341382    -0.79900
O1095       O  0.69851166  0.24898339  0.91999642    -0.79900
O1096       O  0.72280166  0.17146613  0.83528719    -0.79900
O1097       O  0.74915629  0.25484481  0.73127517    -0.79900
Co1098     Co  0.65576556  0.22369304  0.89903396     1.51500
Co1099     Co  0.66658095  0.22496248  0.73864644     1.51700
Co1100     Co  0.71365740  0.27437549  0.79283636     1.51600
Co1101     Co  0.67731977  0.17899499  0.80083607     1.51500
O1102       O  0.67918713  0.22941774  0.81344552    -1.41800
C1103       C  0.71641316  0.16607010  0.88944466     1.09700
C1104       C  0.74251144  0.26321055  0.68259081     1.09800
C1105       C  0.73448986  0.25155033  0.89498151     1.09700
C1106       C  0.70329114  0.15176720  0.72556729     1.09700
C1107       C  0.54591276  0.15364410  0.63995399    -0.26100
C1108       C  0.53610613  0.11877661  0.67057377    -0.14200
C1109       C  0.55291777  0.10794611  0.71794163     0.36500
C1110       C  0.57844556  0.13126554  0.73278570    -0.25500
C1111       C  0.58908454  0.16576851  0.70167860    -0.14800
C1112       C  0.57230937  0.17702750  0.65444558     0.37600
N1113       N  0.58140135  0.21225011  0.62178868    -0.89000
H1114       H  0.53303515  0.16274346  0.60425199     0.18700
H1115       H  0.59111278  0.12160172  0.76855282     0.18700
N1116       N  0.54645695  0.07268452  0.75055357    -0.88000
H1117       H  0.56464303  0.21720492  0.59139225     0.36000
H1118       H  0.61052484  0.21314666  0.59869645     0.41100
H1119       H  0.55246215  0.05426293  0.72275307     0.40800
H1120       H  0.51742615  0.06906716  0.77383977     0.35600
C1121       C  0.60222562  0.12273864  0.98839973    -0.26100
C1122       C  0.58589158  0.14266631  0.94681933    -0.14200
C1123       C  0.54494662  0.14371890  0.95526987     0.36500
C1124       C  0.52102399  0.12399046  0.50524737    -0.25500
C1125       C  0.53739855  0.10468165  0.54742512    -0.14800
C1126       C  0.57860529  0.10374186  0.53883176     0.37600
N1127       N  0.59735994  0.08320605  0.57915047    -0.89000
H1128       H  0.63376586  0.12224735  0.98220099     0.18700
H1129       H  0.48949299  0.12468185  0.51197981     0.18700
N1130       N  0.52701480  0.16380018  0.91391564    -0.88000
H1131       H  0.61512313  0.06537960  0.55786985     0.36000
H1132       H  0.57702640  0.06734802  0.61196163     0.41100
H1133       H  0.53739908  0.15531159  0.87476992     0.40800
H1134       H  0.53500833  0.18994081  0.40889329     0.35600
C1135       C  0.72159182  0.10593167  0.59864937    -0.26100
C1136       C  0.75001623  0.08267083  0.61139891    -0.14200
C1137       C  0.76455121  0.08350058  0.66026684     0.36500
C1138       C  0.75037151  0.10782294  0.69578084    -0.25500
C1139       C  0.72205306  0.13113050  0.68303002    -0.14800
C1140       C  0.70796676  0.13091648  0.63360334     0.37600
N1141       N  0.67886500  0.15501467  0.62045525    -0.89000
H1142       H  0.71013255  0.10456527  0.56150472     0.18700
H1143       H  0.76109024  0.10811543  0.73377795     0.18700
N1144       N  0.79296817  0.05912345  0.67466392    -0.88000
H1145       H  0.67023640  0.15004017  0.58418533     0.36000
H1146       H  0.69209534  0.18062709  0.60980405     0.41100
H1147       H  0.81719986  0.07391469  0.67803973     0.40800
H1148       H  0.78083748  0.04401364  0.71487574     0.35600
C1149       C  0.76478260  0.08111103  0.94060026    -0.26100
C1150       C  0.78400347  0.09193213  0.47997642    -0.14200
C1151       C  0.78439556  0.12876657  0.48407036     0.36500
C1152       C  0.76199748  0.15212454  0.95515969    -0.25500
C1153       C  0.74130570  0.14089350  0.91804394    -0.14800
C1154       C  0.74395798  0.10515484  0.90930723     0.37600
N1155       N  0.72317622  0.09269246  0.87162747    -0.89000
H1156       H  0.76359143  0.05317149  0.93735897     0.18700
H1157       H  0.76043458  0.17941297  0.96222893     0.18700
N1158       N  0.80677773  0.14325231  0.51796111    -0.88000
H1159       H  0.72633118  0.06541550  0.87212680     0.36000
H1160       H  0.73669354  0.10516193  0.83026587     0.41100
H1161       H  0.82249094  0.12371889  0.53667022     0.40800
H1162       H  0.78742242  0.15294590  0.55088618     0.35600
C1163       C  0.60961764  0.30280392  0.66050848    -0.26100
C1164       C  0.63643791  0.31750061  0.68604887    -0.14200
C1165       C  0.65322307  0.35205164  0.66265249     0.36500
C1166       C  0.64131713  0.37147152  0.61619383    -0.25500
C1167       C  0.61076189  0.35833282  0.59610223    -0.14800
C1168       C  0.59648963  0.32286279  0.61626088     0.37600
N1169       N  0.56686101  0.30718471  0.59531304    -0.89000
H1170       H  0.59783229  0.27571795  0.67581867     0.18700
H1171       H  0.65177788  0.39898062  0.60111183     0.18700
N1172       N  0.68050310  0.36810014  0.68787084    -0.88000
H1173       H  0.57816838  0.30638834  0.55211569     0.36000
H1174       H  0.54240480  0.32282850  0.59990903     0.41100
H1175       H  0.66555489  0.37133779  0.72894314     0.40800
H1176       H  0.69006255  0.39354375  0.66518632     0.35600
C1177       C  0.58466307  0.32695533  0.92663765    -0.26100
C1178       C  0.62577448  0.32812902  0.90762390    -0.14200
C1179       C  0.64700897  0.35614501  0.92071508     0.36500
C1180       C  0.62734194  0.37882219  0.95766407    -0.25500
C1181       C  0.58656608  0.37558853  0.98073755    -0.14800
C1182       C  0.56510615  0.35044721  0.96197769     0.37600
N1183       N  0.52358520  0.34671928  0.98163108    -0.89000
H1184       H  0.56741443  0.30658962  0.91599657     0.18700
H1185       H  0.64410877  0.39785250  0.47192320     0.18700
N1186       N  0.68870559  0.36057480  0.89904589    -0.88000
H1187       H  0.51607813  0.32063753  0.00303265     0.36000
H1188       H  0.51152723  0.35068270  0.94591980     0.41100
H1189       H  0.69983318  0.38160584  0.91407189     0.40800
H1190       H  0.69399569  0.36803935  0.35525544     0.35600
C1191       C  0.83659978  0.29379119  0.56840786    -0.26100
C1192       C  0.83060434  0.33016177  0.55169238    -0.14200
C1193       C  0.79760137  0.34486134  0.58317757     0.36500
C1194       C  0.76899757  0.32213341  0.62455243    -0.25500
C1195       C  0.77310522  0.28511525  0.63662830    -0.14800
C1196       C  0.80854714  0.27115912  0.61002264     0.37600
N1197       N  0.81667840  0.23415054  0.62247138    -0.89000
H1198       H  0.86207860  0.28220033  0.54501210     0.18700
H1199       H  0.74308386  0.33334993  0.64721282     0.18700
N1200       N  0.79157301  0.38218180  0.56981770    -0.88000
H1201       H  0.81893124  0.22353654  0.58507906     0.36000
H1202       H  0.79379231  0.21971435  0.65312644     0.41100
H1203       H  0.81374304  0.39557749  0.08303393     0.40800
H1204       H  0.76479292  0.38846602  0.59448094     0.35600
C1205       C  0.75217592  0.29140890  0.95242502    -0.26100
C1206       C  0.76314847  0.26318720  0.92309754    -0.14200
C1207       C  0.80300182  0.25454057  0.90853557     0.36500
C1208       C  0.83094670  0.27576962  0.92146957    -0.25500
C1209       C  0.82002302  0.30579541  0.94621303    -0.14800
C1210       C  0.78039493  0.31385942  0.96140099     0.37600
N1211       N  0.76901081  0.34694448  0.97925031    -0.89000
H1212       H  0.72196307  0.29900846  0.96173392     0.18700
H1213       H  0.86162616  0.27006369  0.90901138     0.18700
N1214       N  0.81646343  0.22608900  0.87793893    -0.88000
H1215       H  0.74650791  0.34147572  0.01640455     0.36000
H1216       H  0.75737884  0.36191844  0.94772596     0.41100
H1217       H  0.79332159  0.21150100  0.87127937     0.40800
H1218       H  0.83027187  0.20837970  0.90367973     0.35600
N1219       N  0.85048640  0.84673724  0.99454102    -0.03200
C1220       C  0.87756789  0.87426624  0.97394537    -0.00600
C1221       C  0.89454190  0.87506569  0.41600121    -0.23500
C1222       C  0.87756869  0.84741150  0.40002231    -0.23700
C1223       C  0.85041453  0.83130949  0.44798522    -0.00700
H1224       H  0.91578624  0.89477708  0.38820157     0.13000
H1225       H  0.88239080  0.84130242  0.35728510     0.13100
N1226       N  0.57030697  0.89118332  0.03171895    -0.03200
C1227       C  0.54358200  0.91685972  0.04269540    -0.00600
C1228       C  0.54071154  0.92515421  0.09648685    -0.23500
C1229       C  0.56629826  0.90529745  0.11987086    -0.23700
C1230       C  0.58403393  0.88516951  0.08003128    -0.00700
H1231       H  0.52114298  0.94348305  0.11695590     0.13000
H1232       H  0.57082969  0.90467492  0.16236669     0.13100
N1233       N  0.79213428  0.56465148  0.02485573    -0.03200
C1234       C  0.80744601  0.53239742  0.01709578    -0.00600
C1235       C  0.78594202  0.50541312  0.05826551    -0.23500
C1236       C  0.75910019  0.52104372  0.09499617    -0.23700
C1237       C  0.76416433  0.55687102  0.07444953    -0.00700
H1238       H  0.79332952  0.97783010  0.06656944     0.13000
H1239       H  0.74104155  0.50818162  0.13567944     0.13100
N1240       N  0.94859593  0.92823645  0.49919244    -0.36400
N1241       N  0.98577680  0.99124339  0.01399736    -0.56900
N1242       N  0.91714917  0.53342938  0.01001308    -0.36400
N1243       N  0.87948986  0.96911949  0.49569213    -0.56900
C1244       C  0.97875819  0.91523818  0.52026011     0.27200
C1245       C  0.91850980  0.90384743  0.51951053     0.27200
C1246       C  0.93325419  0.54937386  0.04581407     0.27200
C1247       C  0.87869852  0.54126518  0.01902286     0.27200
C1248       C  0.51773250  0.97172632  0.00027555     0.35800
C1249       C  0.49798817  0.52210050  0.02651104     0.35800
C1250       C  0.86930560  0.93810761  0.48188157     0.35800
C1251       C  0.85730596  0.99369214  0.97460466     0.35800
C1252       C  0.96731380  0.88240151  0.55512221    -0.21700
C1253       C  0.92949103  0.87472635  0.55303387    -0.21700
C1254       C  0.90520903  0.56933240  0.07498865    -0.21700
C1255       C  0.87108077  0.56386423  0.05871764    -0.21700
C1256       C  0.55084002  0.99162701  0.00032811    -0.22700
C1257       C  0.53817441  0.52250637  0.01912552    -0.22700
C1258       C  0.84082966  0.94336972  0.45096400    -0.22700
C1259       C  0.83328065  0.97897636  0.44616607    -0.22700
C1260       C  0.51542195  0.93338814  0.51061646    -0.18100
C1261       C  0.88436709  0.90505266  0.49979839    -0.18100
C1262       C  0.85004561  0.52590819  0.99586395    -0.18100
C1263       C  0.97229045  0.54613213  0.05356583    -0.18100
H1264       H  0.48450127  0.86552149  0.57920533     0.14800
H1265       H  0.91205357  0.85057964  0.57346196     0.14800
H1266       H  0.90841713  0.58562186  0.10603486     0.14800
H1267       H  0.84352628  0.57399417  0.07696499     0.14800
H1268       H  0.58038113  0.98259847  0.99558336     0.13100
H1269       H  0.55666819  0.54149632  0.02933866     0.13100
H1270       H  0.82584306  0.92341164  0.43587646     0.13100
H1271       H  0.81036214  0.99168225  0.42836141     0.13100
H1272       H  0.94970369  0.95099270  0.46840646     0.26400
H1273       H  0.93140843  0.51821174  0.98038498     0.26400
N1274       N  0.51152417  0.58691646  0.09851608    -0.03200
C1275       C  0.50892209  0.59399263  0.15238094    -0.00600
C1276       C  0.47768993  0.57368069  0.18949314    -0.23500
C1277       C  0.96167613  0.55336262  0.15795766    -0.23700
C1278       C  0.98256203  0.56210531  0.10168215    -0.00700
H1279       H  0.46655975  0.57412779  0.23447224     0.13000
H1280       H  0.93664388  0.53477902  0.17423170     0.13100
O1281       O  0.62703617  0.76819127  0.38779712    -0.79900
O1282       O  0.64023725  0.71269080  0.18303534    -0.80300
O1283       O  0.68301230  0.80122761  0.24052690    -0.79900
O1284       O  0.64246041  0.65134981  0.37129530    -0.79900
O1285       O  0.63234769  0.76425846  0.25192754    -0.80000
O1286       O  0.60976421  0.69737624  0.38993521    -0.79900
O1287       O  0.62589843  0.67949707  0.26882319    -0.79900
O1288       O  0.68149672  0.80133497  0.35280549    -0.79900
C1289       C  0.64546594  0.79805817  0.37996569     1.09800
C1290       C  0.61940889  0.68746885  0.21800040     1.09700
C1291       C  0.64974558  0.79429723  0.23144778     1.09800
C1292       C  0.61241119  0.66429080  0.39823850     1.09700
O1293       O  0.68666545  0.67951579  0.41937638    -0.79900
O1294       O  0.70776228  0.75719023  0.17708887    -0.80000
O1295       O  0.74504139  0.75099880  0.34244803    -0.79900
O1296       O  0.68481762  0.63575029  0.27380774    -0.79900
O1297       O  0.70490585  0.68613055  0.21333253    -0.79900
O1298       O  0.69837464  0.74885236  0.42000609    -0.79900
O1299       O  0.72256902  0.67138887  0.33525054    -0.79900
O1300       O  0.74882145  0.75471821  0.23140722    -0.79900
Co1301     Co  0.65555447  0.72358598  0.39911512     1.51500
Co1302     Co  0.66635114  0.72495884  0.23859572     1.51700
Co1303     Co  0.71338274  0.77428995  0.29291648     1.51600
Co1304     Co  0.67710058  0.67894523  0.30074744     1.51500
O1305       O  0.67889217  0.72935598  0.31348455    -1.41800
C1306       C  0.71617906  0.66598615  0.38941180     1.09700
C1307       C  0.74225602  0.76319049  0.18271255     1.09800
C1308       C  0.73434370  0.75142790  0.39491902     1.09700
C1309       C  0.70322640  0.65185312  0.22536364     1.09700
C1310       C  0.54566547  0.65380081  0.13980360    -0.26100
C1311       C  0.53588317  0.61890073  0.17028417    -0.14200
C1312       C  0.55277841  0.60794730  0.21752192     0.36500
C1313       C  0.57841152  0.63117876  0.23234345    -0.25500
C1314       C  0.58898953  0.66573510  0.20140588    -0.14800
C1315       C  0.57211609  0.67711238  0.15431629     0.37600
N1316       N  0.58115946  0.71238635  0.12183867    -0.89000
H1317       H  0.53272050  0.66298248  0.10419944     0.18700
H1318       H  0.59115894  0.62143091  0.26799543     0.18700
N1319       N  0.54622747  0.57267062  0.25007169    -0.88000
H1320       H  0.56430755  0.71743507  0.09157606     0.36000
H1321       H  0.61024810  0.71331029  0.09859806     0.41100
H1322       H  0.55213435  0.55427000  0.22222570     0.40800
H1323       H  0.51719197  0.56912216  0.27336087     0.35600
C1324       C  0.60221067  0.62265783  0.48851861    -0.26100
C1325       C  0.58577689  0.64243293  0.44690913    -0.14200
C1326       C  0.54481946  0.64323117  0.45534765     0.36500
C1327       C  0.52106011  0.62446530  0.00506166    -0.25500
C1328       C  0.53733762  0.60495546  0.04716293    -0.14800
C1329       C  0.57853113  0.60387993  0.03866797     0.37600
N1330       N  0.59717158  0.58319865  0.07899259    -0.89000
H1331       H  0.63375894  0.62232485  0.48230204     0.18700
H1332       H  0.48953871  0.62530181  0.01178261     0.18700
N1333       N  0.52678696  0.66302685  0.41385981    -0.88000
H1334       H  0.61484838  0.56532540  0.05769913     0.36000
H1335       H  0.57675894  0.56738924  0.11175759     0.41100
H1336       H  0.53724011  0.65440865  0.37483608     0.40800
H1337       H  0.53537355  0.69066685  0.90922016     0.35600
C1338       C  0.72184768  0.60611419  0.09834327    -0.26100
C1339       C  0.75022904  0.58283062  0.11121203    -0.14200
C1340       C  0.76472584  0.58371531  0.16010657     0.36500
C1341       C  0.75046538  0.60802673  0.19560911    -0.25500
C1342       C  0.72215151  0.63131177  0.18277601    -0.14800
C1343       C  0.70821353  0.63114567  0.13321381     0.37600
N1344       N  0.67923044  0.65532533  0.11986580    -0.89000
H1345       H  0.71041527  0.60471898  0.06118488     0.18700
H1346       H  0.76108177  0.60830507  0.23370383     0.18700
N1347       N  0.79315686  0.55938025  0.17458051    -0.88000
H1348       H  0.67074401  0.65041698  0.08345310     0.36000
H1349       H  0.69251105  0.68091566  0.10936540     0.41100
H1350       H  0.81736566  0.57420939  0.17794745     0.40800
H1351       H  0.78102515  0.54428877  0.21480505     0.35600
C1352       C  0.76453311  0.58111446  0.44091235    -0.26100
C1353       C  0.78417487  0.59181638  0.97982176    -0.14200
C1354       C  0.78462403  0.62864043  0.98400776     0.36500
C1355       C  0.76178735  0.65218897  0.45509320    -0.25500
C1356       C  0.74109696  0.64086860  0.41804273    -0.14800
C1357       C  0.74367271  0.60508284  0.40956373     0.37600
N1358       N  0.72275620  0.59249778  0.37213781    -0.89000
H1359       H  0.76331690  0.55314876  0.43784612     0.18700
H1360       H  0.76020046  0.67949620  0.46206209     0.18700
N1361       N  0.80710494  0.64306082  0.01783405    -0.88000
H1362       H  0.72581894  0.56519004  0.37289387     0.36000
H1363       H  0.73621407  0.60482107  0.33066071     0.41100
H1364       H  0.82285495  0.62350022  0.03639831     0.40800
H1365       H  0.78782800  0.65274154  0.05084879     0.35600
C1366       C  0.60910994  0.80290961  0.16074811    -0.26100
C1367       C  0.63620726  0.81747356  0.18598223    -0.14200
C1368       C  0.65336967  0.85184922  0.16211866     0.36500
C1369       C  0.64163516  0.87120761  0.11546608    -0.25500
C1370       C  0.61082203  0.85827580  0.09570804    -0.14800
C1371       C  0.59612113  0.82296408  0.11634451     0.37600
N1372       N  0.56623012  0.80746947  0.09568517    -0.89000
H1373       H  0.59701243  0.77594506  0.17640765     0.18700
H1374       H  0.65243978  0.89859767  0.09998807     0.18700
N1375       N  0.68087366  0.86781862  0.18704652    -0.88000
H1376       H  0.57741404  0.80646525  0.05252649     0.36000
H1377       H  0.54198106  0.82336526  0.10016517     0.41100
H1378       H  0.66601856  0.87138775  0.22798892     0.40800
H1379       H  0.69073068  0.89311249  0.16399659     0.35600
C1380       C  0.58452468  0.82689572  0.42683802    -0.26100
C1381       C  0.62563464  0.82802996  0.40792687    -0.14200
C1382       C  0.64687151  0.85597835  0.42119694     0.36500
C1383       C  0.62718913  0.87861461  0.45822541    -0.25500
C1384       C  0.58639354  0.87542296  0.48116791    -0.14800
C1385       C  0.56495642  0.85034541  0.46224306     0.37600
N1386       N  0.52343957  0.84659091  0.48187182    -0.89000
H1387       H  0.56727774  0.80657926  0.41607607     0.18700
H1388       H  0.64426848  0.89811559  0.97123010     0.18700
N1389       N  0.68857350  0.86039174  0.39959863    -0.88000
H1390       H  0.51594901  0.82049021  0.50319481     0.36000
H1391       H  0.51139110  0.85059546  0.44615209     0.41100
H1392       H  0.69967741  0.88140984  0.41468722     0.40800
H1393       H  0.69408763  0.86818922  0.85469209     0.35600
C1394       C  0.83658587  0.79359877  0.06901573    -0.26100
C1395       C  0.83071412  0.82999492  0.05232150    -0.14200
C1396       C  0.79779078  0.84478178  0.08380845     0.36500
C1397       C  0.76903099  0.82209774  0.12496559    -0.25500
C1398       C  0.77296731  0.78505313  0.13691764    -0.14800
C1399       C  0.80843675  0.77102994  0.11056725     0.37600
N1400       N  0.81653034  0.73402977  0.12329301    -0.89000
H1401       H  0.86205729  0.78195781  0.04570046     0.18700
H1402       H  0.74315750  0.83336900  0.14758873     0.18700
N1403       N  0.79201680  0.88216442  0.07066273    -0.88000
H1404       H  0.81888993  0.72331747  0.08596589     0.36000
H1405       H  0.79359945  0.71964252  0.15391684     0.41100
H1406       H  0.81323086  0.89580108  0.58201871     0.40800
H1407       H  0.76527916  0.88853396  0.09533504     0.35600
C1408       C  0.75212970  0.79147562  0.45196286    -0.26100
C1409       C  0.76305279  0.76313819  0.42289446    -0.14200
C1410       C  0.80290486  0.75445486  0.40837273     0.36500
C1411       C  0.83087974  0.77571156  0.42120725    -0.25500
C1412       C  0.81998742  0.80582608  0.44571383    -0.14800
C1413       C  0.78038187  0.81396776  0.46074256     0.37600
N1414       N  0.76907422  0.84717262  0.47819485    -0.89000
H1415       H  0.72193188  0.79911899  0.46119237     0.18700
H1416       H  0.86155253  0.76997016  0.40881615     0.18700
N1417       N  0.81634052  0.72594702  0.37789528    -0.88000
H1418       H  0.74650391  0.84188109  0.51528616     0.36000
H1419       H  0.75758235  0.86207217  0.44645280     0.41100
H1420       H  0.79319409  0.71140238  0.37115735     0.40800
H1421       H  0.83007056  0.70822846  0.40373360     0.35600
N1422       N  0.85034480  0.84690539  0.49387849    -0.03200
C1423       C  0.87701504  0.87475039  0.47304818    -0.00600
C1424       C  0.89519958  0.87450740  0.91695386    -0.23500
C1425       C  0.87791143  0.84711051  0.90078818    -0.23700
C1426       C  0.85047129  0.83123027  0.94858966    -0.00700
H1427       H  0.91666811  0.89407038  0.88926835     0.13000
H1428       H  0.88277543  0.84101691  0.85803730     0.13100
N1429       N  0.57004080  0.89098005  0.53217381    -0.03200
C1430       C  0.54285953  0.91625670  0.54343605    -0.00600
C1431       C  0.53964397  0.92430982  0.59744383    -0.23500
C1432       C  0.56546979  0.90471876  0.62069806    -0.23700
C1433       C  0.58367936  0.88497179  0.58057098    -0.00700
H1434       H  0.51979068  0.94239341  0.61804814     0.13000
H1435       H  0.56986657  0.90401995  0.66328238     0.13100
N1436       N  0.79212235  0.56484343  0.52497697    -0.03200
C1437       C  0.80760227  0.53267852  0.51709393    -0.00600
C1438       C  0.78611874  0.50555193  0.55798669    -0.23500
C1439       C  0.75907919  0.52100374  0.59470440    -0.23700
C1440       C  0.76405356  0.55686525  0.57442417    -0.00700
H1441       H  0.79359626  0.97798547  0.56610370     0.13000
H1442       H  0.74095601  0.50800626  0.63524820     0.13100
N1443       N  0.94895445  0.92821811  0.99934010    -0.36400
N1444       N  0.98566216  0.99103065  0.51439675    -0.56900
N1445       N  0.91724542  0.53354881  0.51033372    -0.36400
N1446       N  0.87955897  0.96875650  0.99601738    -0.56900
C1447       C  0.97925718  0.91544580  0.02026526     0.27200
C1448       C  0.91898866  0.90374308  0.02002415     0.27200
C1449       C  0.93333953  0.54931729  0.54631748     0.27200
C1450       C  0.87884165  0.54153108  0.51918805     0.27200
C1451       C  0.51752149  0.97135857  0.50089927     0.35800
C1452       C  0.49795639  0.52176110  0.52723330     0.35800
C1453       C  0.86944676  0.93760211  0.98257858     0.35800
C1454       C  0.85752105  0.99426444  0.47413088     0.35800
C1455       C  0.96802686  0.88267389  0.05542596    -0.21700
C1456       C  0.93018325  0.87479217  0.05366074    -0.21700
C1457       C  0.90534087  0.56933211  0.57547521    -0.21700
C1458       C  0.87123930  0.56407917  0.55896689    -0.21700
C1459       C  0.55066978  0.99104387  0.50144207    -0.22700
C1460       C  0.53810490  0.52193823  0.52029604    -0.22700
C1461       C  0.84074427  0.94256264  0.95202776    -0.22700
C1462       C  0.83295788  0.97812368  0.94710758    -0.22700
C1463       C  0.51585762  0.93376327  0.01019948    -0.18100
C1464       C  0.88477195  0.90468401  0.00052431    -0.18100
C1465       C  0.85022345  0.52634258  0.49576752    -0.18100
C1466       C  0.97232987  0.54587890  0.55420450    -0.18100
H1467       H  0.48537744  0.86596558  0.07945904     0.14800
H1468       H  0.91287420  0.85061721  0.07435237     0.14800
H1469       H  0.90856630  0.58552272  0.60664382     0.14800
H1470       H  0.84371099  0.57434005  0.57704128     0.14800
H1471       H  0.58012804  0.98184294  0.49698401     0.13100
H1472       H  0.55659295  0.54077589  0.53092362     0.13100
H1473       H  0.82576455  0.92243272  0.93728797     0.13100
H1474       H  0.80985160  0.99061815  0.92950687     0.13100
H1475       H  0.94989064  0.95086895  0.96840971     0.26400
H1476       H  0.93149577  0.51834444  0.48066882     0.26400
N1477       N  0.51166602  0.58669206  0.59891373    -0.03200
C1478       C  0.50916044  0.59379361  0.65275513    -0.00600
C1479       C  0.47797287  0.57346867  0.68997184    -0.23500
C1480       C  0.96189064  0.55312277  0.65855021    -0.23700
C1481       C  0.98268618  0.56186106  0.60223957    -0.00700
H1482       H  0.46688402  0.57394663  0.73494716     0.13000
H1483       H  0.93686696  0.53453642  0.67491478     0.13100
O1484       O  0.62722752  0.76826723  0.88760720    -0.79900
O1485       O  0.64038556  0.71270205  0.68316548    -0.80300
O1486       O  0.68334312  0.80128148  0.74038344    -0.79900
O1487       O  0.64269741  0.65144846  0.87142328    -0.79900
O1488       O  0.63265269  0.76430748  0.75197202    -0.80000
O1489       O  0.61001810  0.69751344  0.88973043    -0.79900
O1490       O  0.62607641  0.67955754  0.76898762    -0.79900
O1491       O  0.68168882  0.80141131  0.85266468    -0.79900
C1492       C  0.64563945  0.79814044  0.87974850     1.09800
C1493       C  0.61954013  0.68751558  0.71819047     1.09700
C1494       C  0.65005143  0.79433757  0.73141888     1.09800
C1495       C  0.61262718  0.66443593  0.89819603     1.09700
O1496       O  0.68690806  0.67962832  0.91939451    -0.79900
O1497       O  0.70800535  0.75712731  0.67707960    -0.80000
O1498       O  0.74525480  0.75112026  0.84250415    -0.79900
O1499       O  0.68493141  0.63574158  0.77408386    -0.79900
O1500       O  0.70503592  0.68604283  0.71341258    -0.79900
O1501       O  0.69851246  0.74898223  0.91999555    -0.79900
O1502       O  0.72280180  0.67146422  0.83528466    -0.79900
O1503       O  0.74915823  0.75484252  0.73127471    -0.79900
Co1504     Co  0.65576665  0.72369187  0.89903265     1.51500
Co1505     Co  0.66658166  0.72496171  0.73864572     1.51700
Co1506     Co  0.71365936  0.77437379  0.79283533     1.51600
Co1507     Co  0.67731941  0.67899377  0.80083508     1.51500
O1508       O  0.67918845  0.72941639  0.81344440    -1.41800
C1509       C  0.71641408  0.66606882  0.88944203     1.09700
C1510       C  0.74251357  0.76320855  0.68259028     1.09800
C1511       C  0.73449069  0.75154910  0.89498104     1.09700
C1512       C  0.70328858  0.65176526  0.72556644     1.09700
C1513       C  0.54591124  0.65364546  0.63995442    -0.26100
C1514       C  0.53610794  0.61877666  0.67057039    -0.14200
C1515       C  0.55292226  0.60794487  0.71793505     0.36500
C1516       C  0.57844877  0.63126467  0.73278070    -0.25500
C1517       C  0.58908422  0.66576914  0.70167776    -0.14800
C1518       C  0.57230667  0.67702932  0.65444750     0.37600
N1519       N  0.58139468  0.71225362  0.62179549    -0.89000
H1520       H  0.53303175  0.66274549  0.60425456     0.18700
H1521       H  0.59111816  0.62159992  0.76854524     0.18700
N1522       N  0.54646572  0.57268164  0.75054143    -0.88000
H1523       H  0.56463494  0.71720882  0.59140096     0.36000
H1524       H  0.61051789  0.71315331  0.59870115     0.41100
H1525       H  0.55247288  0.55426249  0.72273697     0.40800
H1526       H  0.51743524  0.56906063  0.77382822     0.35600
C1527       C  0.60222644  0.62273724  0.98840021    -0.26100
C1528       C  0.58589232  0.64266558  0.94682042    -0.14200
C1529       C  0.54494732  0.64371931  0.95527245     0.36500
C1530       C  0.52102429  0.62399259  0.50524539    -0.25500
C1531       C  0.53739924  0.60468286  0.54742188    -0.14800
C1532       C  0.57860604  0.60374255  0.53882731     0.37600
N1533       N  0.59736117  0.58320707  0.57914571    -0.89000
H1534       H  0.63376670  0.62224517  0.98220058     0.18700
H1535       H  0.48949326  0.62468479  0.51197920     0.18700
N1536       N  0.52701529  0.66380121  0.91391903    -0.88000
H1537       H  0.61512425  0.56538053  0.55786514     0.36000
H1538       H  0.57702790  0.56734909  0.61195720     0.41100
H1539       H  0.53739851  0.65531244  0.87477323     0.40800
H1540       H  0.53500892  0.68994515  0.40889601     0.35600
C1541       C  0.72158704  0.60592918  0.59864912    -0.26100
C1542       C  0.75001193  0.58266870  0.61139800    -0.14200
C1543       C  0.76454751  0.58349859  0.66026532     0.36500
C1544       C  0.75036790  0.60782069  0.69577964    -0.25500
C1545       C  0.72204911  0.63112798  0.68302950    -0.14800
C1546       C  0.70796187  0.63091365  0.63360367     0.37600
N1547       N  0.67885941  0.65501138  0.62045682    -0.89000
H1548       H  0.71012770  0.60456286  0.56150449     0.18700
H1549       H  0.76108717  0.60811340  0.73377629     0.18700
N1550       N  0.79296528  0.55912201  0.67466118    -0.88000
H1551       H  0.67023027  0.65003673  0.58418739     0.36000
H1552       H  0.69208932  0.68062397  0.60980533     0.41100
H1553       H  0.81719669  0.57391369  0.67803688     0.40800
H1554       H  0.78083523  0.54401179  0.71487290     0.35600
C1555       C  0.76478164  0.58110947  0.94059940    -0.26100
C1556       C  0.78400321  0.59193167  0.47997657    -0.14200
C1557       C  0.78439487  0.62876596  0.48407143     0.36500
C1558       C  0.76200001  0.65212376  0.95515447    -0.25500
C1559       C  0.74130677  0.64089234  0.91804074    -0.14800
C1560       C  0.74395710  0.60515324  0.90930629     0.37600
N1561       N  0.72317330  0.59269042  0.87162924    -0.89000
H1562       H  0.76358893  0.55316965  0.93736029     0.18700
H1563       H  0.76043786  0.67941234  0.96222287     0.18700
N1564       N  0.80677639  0.64325128  0.51796338    -0.88000
H1565       H  0.72632653  0.56541313  0.87213079     0.36000
H1566       H  0.73669027  0.60515839  0.83026649     0.41100
H1567       H  0.82249022  0.62371792  0.53667123     0.40800
H1568       H  0.78742052  0.65294355  0.55088938     0.35600
C1569       C  0.60961944  0.80280278  0.66050908    -0.26100
C1570       C  0.63644029  0.81749972  0.68604817    -0.14200
C1571       C  0.65322486  0.85205087  0.66265165     0.36500
C1572       C  0.64131789  0.87147061  0.61619380    -0.25500
C1573       C  0.61076212  0.85833160  0.59610353    -0.14800
C1574       C  0.59649005  0.82286159  0.61626290     0.37600
N1575       N  0.56685985  0.80718361  0.59531800    -0.89000
H1576       H  0.59783423  0.77571682  0.67581979     0.18700
H1577       H  0.65177828  0.89897979  0.60111156     0.18700
N1578       N  0.68050511  0.86809969  0.68786925    -0.88000
H1579       H  0.57816545  0.80638718  0.55212031     0.36000
H1580       H  0.54240369  0.82282746  0.59991617     0.41100
H1581       H  0.66555733  0.87133676  0.72894215     0.40800
H1582       H  0.69006364  0.89354354  0.66518520     0.35600
C1583       C  0.58466469  0.82695484  0.92663448    -0.26100
C1584       C  0.62577617  0.82812800  0.90762165    -0.14200
C1585       C  0.64701083  0.85614374  0.92071315     0.36500
C1586       C  0.62734373  0.87882158  0.95766084    -0.25500
C1587       C  0.58656772  0.87558867  0.98073308    -0.14800
C1588       C  0.56510777  0.85044726  0.96197353     0.37600
N1589       N  0.52358675  0.84671988  0.98162631    -0.89000
H1590       H  0.56741597  0.80658919  0.91599341     0.18700
H1591       H  0.64410754  0.89785155  0.47192326     0.18700
N1592       N  0.68870765  0.86057258  0.89904575    -0.88000
H1593       H  0.51607924  0.82063832  0.00302854     0.36000
H1594       H  0.51152909  0.85068305  0.94591476     0.41100
H1595       H  0.69983518  0.88160369  0.91407166     0.40800
H1596       H  0.69399263  0.86804116  0.35525186     0.35600
C1597       C  0.83660246  0.79379253  0.56840954    -0.26100
C1598       C  0.83060489  0.83016251  0.55169320    -0.14200
C1599       C  0.79760117  0.84486098  0.58317837     0.36500
C1600       C  0.76899795  0.82213211  0.62455260    -0.25500
C1601       C  0.77310725  0.78511418  0.63662853    -0.14800
C1602       C  0.80855063  0.77115958  0.61002424     0.37600
N1603       N  0.81668425  0.73415167  0.62247418    -0.89000
H1604       H  0.86208227  0.78220269  0.54501430     0.18700
H1605       H  0.74308340  0.83334771  0.64721245     0.18700
N1606       N  0.79157163  0.88218126  0.56981917    -0.88000
H1607       H  0.81893940  0.72353718  0.58508183     0.36000
H1608       H  0.79379827  0.71971458  0.65312818     0.41100
H1609       H  0.81374558  0.89557777  0.08303400     0.40800
H1610       H  0.76479178  0.88846487  0.59448369     0.35600
C1611       C  0.75217579  0.79140880  0.95242380    -0.26100
C1612       C  0.76314895  0.76318697  0.92309671    -0.14200
C1613       C  0.80300249  0.75454093  0.90853487     0.36500
C1614       C  0.83094695  0.77577083  0.92146791    -0.25500
C1615       C  0.82002269  0.80579672  0.94621057    -0.14800
C1616       C  0.78039439  0.81385985  0.96139961     0.37600
N1617       N  0.76900958  0.84694429  0.97925076    -0.89000
H1618       H  0.72196272  0.79900773  0.96173308     0.18700
H1619       H  0.86162656  0.77006539  0.90900963     0.18700
N1620       N  0.81646478  0.72608913  0.87793917    -0.88000
H1621       H  0.74650717  0.84147464  0.01640549     0.36000
H1622       H  0.75737693  0.86191847  0.94772743     0.41100
H1623       H  0.79332347  0.71150088  0.87127874     0.40800
H1624       H  0.83027295  0.70838015  0.90368086     0.35600
loop_ 
_geom_bond_atom_site_label_1 
_geom_bond_atom_site_label_2 
_geom_bond_distance 
_geom_bond_site_symmetry_2 
_ccdc_geom_bond_type 
N1            C2   1.361       .  A
N1          C208   1.353       .  A
N1          C177   1.457   1_556  S
C2          C206   1.384       .  A
C2          C246   1.468   1_556  S
C3            C4   1.363       .  A
C3          C205   1.384       .  A
C3            H6   1.083       .  S
C4            C5   1.376       .  A
C4            H7   1.082       .  S
C5          N204   1.353       .  A
C5          C194   1.458       .  S
N8           C12   1.362       .  A
N8            C9   1.377       .  A
N8          C369   1.466   1_554  S
C9           C10   1.383       .  A
C9          C245   1.482       .  S
C10          C11   1.347       .  A
C10          H13   1.083       .  S
C11          C12   1.377       .  A
C11          H14   1.083       .  S
C12         C152   1.462       .  S
N15          C19   1.358       .  A
N15          C16   1.370       .  A
N15         C135   1.460   1_554  S
C16          C17   1.391       .  A
C16          C44   1.503   1_554  S
C17          C18   1.357       .  A
C17         H426   1.083   1_545  S
C18          C19   1.371       .  A
C18          H21   1.083       .  S
C19         C121   1.457       .  S
H20         C423   1.083       .  S
N22          C27   1.350       .  A
N22          C26   1.346       .  A
N22          H54   1.044       .  S
N23         C842   1.359       .  A
N23        C1249   1.356       .  A
N24          C29   1.362       .  A
N24          C28   1.363       .  A
N24          H55   1.042   1_554  S
N25          C32   1.351       .  A
N25         C236   1.351       .  A
C26          C34   1.392       .  A
C26         C854   1.411       .  A
C27          C43   1.392       .  A
C27          C35   1.380       .  A
C28          C36   1.386       .  A
C28          C45   1.432       .  A
C29          C44   1.431   1_554  A
C29          C37   1.383       .  A
C30         N835   1.359   1_455  A
C30          C38   1.386       .  A
C30         C245   1.427       .  A
C31        N1241   1.356   1_545  A
C31          C39   1.382   1_655  A
C31         C857   1.423       .  A
C32          C40   1.385       .  A
C32          C43   1.413       .  A
C33         N228   1.351       .  A
C33         C244   1.390       .  A
C33         C450   1.414       .  A
C34          C35   1.375       .  A
C34         H858   1.082       .  S
C35          H47   1.082       .  S
C36          C37   1.374       .  A
C36          H48   1.081       .  S
C37          H49   1.071       .  S
C38         C445   1.374       .  A
C38          H50   1.083   1_554  S
C39         C444   1.374   1_545  A
C39          H51   1.068       .  S
C40          C41   1.377       .  A
C40          H52   1.083       .  S
C41         C236   1.390       .  A
C41          H53   1.083       .  S
C42         C838   1.411   1_455  A
C42         C233   1.427       .  A
C42         C212   1.482       .  S
C43         C205   1.468       .  S
C44         C439   1.414   1_545  A
C45         C843   1.423       .  A
C45          C60   1.522       .  S
H46         C846   1.082       .  S
N56          C57   1.369       .  A
N56         C872   1.366   1_455  A
N56         C110   1.431       .  S
C57          C58   1.386   1_455  A
C57          C93   1.521       .  S
C58         C871   1.381       .  A
C58          H61   1.080       .  S
C59          C60   1.384       .  A
C59         C870   1.381       .  A
C59          H62   1.082       .  S
C60         N868   1.366       .  A
O63          C71   1.271       .  A
O63         Co83   1.993       .  S
O64          C72   1.272       .  A
O64         Co84   1.921       .  S
O65          C73   1.275       .  A
O65         Co85   2.013       .  S
O66          C74   1.258       .  A
O66         Co86   1.991       .  S
O67          C73   1.264       .  A
O67         Co84   1.945       .  S
O68          C74   1.252       .  A
O68         Co83   1.966       .  S
O69          C72   1.302       .  A
O69         Co86   2.122       .  S
O70          C71   1.280       .  A
O70         Co85   2.052       .  S
C71         C163   1.519       .  S
C72          C96   1.516       .  S
C73         C149   1.473       .  S
C74         C107   1.459       .  S
O75          C88   1.287       .  A
O75         Co83   2.066       .  S
O76          C89   1.276       .  A
O76         Co84   2.058       .  S
O77          C90   1.252       .  A
O77         Co85   1.944       .  S
O78          C91   1.262       .  A
O78         Co86   1.872       .  S
O79          C91   1.290       .  A
O79         Co84   2.085       .  S
O80          C90   1.266       .  A
O80         Co83   1.990       .  S
O81          C88   1.270       .  A
O81         Co86   1.976       .  S
O82          C89   1.255       .  A
O82         Co85   1.969       .  S
Co83         O87   2.035       .  S
Co84         O87   2.012       .  S
Co85         O87   2.017       .  S
Co86         O87   2.001       .  S
C88         C138   1.500       .  S
C89         C180   1.493       .  S
C90         C191   1.450       .  S
C91         C124   1.446       .  S
C92          C93   1.411       .  A
C92          C97   1.425       .  A
C92          H99   1.083       .  S
C93          C94   1.422       .  A
C94          C95   1.406       .  A
C94         N101   1.433       .  S
C95          C96   1.407       .  A
C95         H100   1.084       .  S
C96          C97   1.421       .  A
C97          N98   1.437       .  S
N98         H102   1.046       .  S
N98         H103   1.045       .  S
N101        H104   1.045       .  S
N101        H105   1.042       .  S
C106        C107   1.401       .  A
C106        C314   1.394       .  A
C106        H113   1.085       .  S
C107        C108   1.408       .  A
C108        C312   1.395       .  A
C108        N115   1.432       .  S
C109        C110   1.402       .  A
C109        C311   1.394   1_554  A
C109        H114   1.084   1_455  S
C110        C111   1.417       .  A
C111        C309   1.394   1_554  A
C111        N112   1.440       .  S
N112        H116   1.046       .  S
N112        H117   1.042       .  S
N115        H118   1.046       .  S
N115        H322   1.045       .  S
H119        N318   1.045       .  S
C120        C121   1.396       .  A
C120        C125   1.397       .  A
C120        H127   1.084       .  S
C121        C122   1.409       .  A
C122        C123   1.390       .  A
C122        N129   1.433       .  S
C123        C124   1.394       .  A
C123        H128   1.082       .  S
C124        C125   1.409       .  A
C125        N126   1.436       .  S
N126        H130   1.046       .  S
N126        H131   1.045       .  S
N129        H132   1.046       .  S
N129        H133   1.045       .  S
C134        C139   1.414       .  A
C134        C338   1.408       .  A
C134        H141   1.083       .  S
C135        C136   1.425       .  A
C135        C337   1.408       .  A
C136        C340   1.412       .  A
C136        N143   1.435   1_556  S
C137        C138   1.403       .  A
C137        C339   1.412       .  A
C137        H142   1.083       .  S
C138        C139   1.415       .  A
C139        N140   1.436       .  S
N140        H144   1.045       .  S
N140        H145   1.043       .  S
N143        H146   1.039       .  S
N143        H147   1.045       .  S
C148        C149   1.406       .  A
C148        C153   1.390       .  A
C148        H155   1.083       .  S
C149        C150   1.413       .  A
C150        C151   1.400       .  A
C150        N157   1.438       .  S
C151        C152   1.403       .  A
C151        H156   1.085       .  S
C152        C153   1.408       .  A
C153        N154   1.431       .  S
N154        H158   1.043       .  S
N154        H159   1.045       .  S
N157        H160   1.046       .  S
N157        H161   1.046       .  S
C162        C163   1.409       .  A
C162        C167   1.417       .  A
C162        H169   1.083       .  S
C163        C164   1.420       .  A
C164        C165   1.420       .  A
C164        N171   1.437       .  S
C165        C166   1.410       .  A
C165        H373   1.083       .  S
C166        N211   1.466       .  S
C166        C167   1.413       .  A
C167        N168   1.425       .  S
N168        H172   1.046       .  S
N168        H173   1.046       .  S
H170        C368   1.083       .  S
N171        H174   1.045       .  S
N171        H378   1.046       .  S
H175        N374   1.046       .  S
C176        C177   1.411       .  A
C176        C181   1.408       .  A
C176        H183   1.084       .  S
C177        C178   1.409       .  A
C178        C179   1.418       .  A
C178        N185   1.435       .  S
C179        C180   1.409       .  A
C179        H184   1.080       .  S
C180        C181   1.416       .  A
C181        N182   1.439       .  S
N182        H186   1.046       .  S
N182        H187   1.043       .  S
N185        H189   1.046       .  S
N185        H391   1.045       .  S
H188        N388   1.045       .  S
C190        C191   1.397       .  A
C190        C195   1.385       .  A
C190        H197   1.085       .  S
C191        C192   1.419       .  A
C192        C193   1.394       .  A
C192        N199   1.439       .  S
C193        C194   1.397       .  A
C193        H198   1.084       .  S
C194        C195   1.406       .  A
C195        N196   1.432       .  S
N196        H200   1.046       .  S
N196        H201   1.044       .  S
N199        H202   1.042       .  S
N199        H203   1.046       .  S
N204        C205   1.361       .  A
N204        C380   1.457       .  S
C206        C207   1.363       .  A
C206        H209   1.083       .  S
C207        C208   1.376       .  A
C207        H210   1.082       .  S
C208        C397   1.458       .  S
N211        C215   1.363       .  A
N211        C212   1.377       .  A
C212        C213   1.383       .  A
C213        C214   1.347       .  A
C213        H216   1.083       .  S
C214        C215   1.377       .  A
C214        H217   1.083       .  S
C215        C355   1.462       .  S
N218        C222   1.358       .  A
N218        C219   1.370       .  A
N218        C338   1.460       .  S
C219        C220   1.391       .  A
C219        C247   1.503       .  S
C220        C221   1.356       .  A
C220        H629   1.083   1_545  S
C221        C222   1.371       .  A
C221        H224   1.083       .  S
C222        C324   1.456       .  S
H223        C626   1.083       .  S
N225        C230   1.349   1_556  A
N225        C229   1.346   1_556  A
N225        H257   1.044       .  S
N226       C1045   1.359       .  A
N226       C1452   1.356       .  A
N227        C232   1.362       .  A
N227        C231   1.363       .  A
N227        H258   1.042       .  S
N228        C235   1.351       .  A
C229        C237   1.392       .  A
C229       C1057   1.411       .  A
C230        C246   1.392       .  A
C230        C238   1.380       .  A
C231        C239   1.386       .  A
C231        C248   1.432       .  A
C232        C247   1.431       .  A
C232        C240   1.383       .  A
C233       N1038   1.359   1_455  A
C233        C241   1.387       .  A
C234       N1444   1.356   1_545  A
C234       C1060   1.423       .  A
C234        C242   1.382   1_655  A
C235        C243   1.385       .  A
C235        C246   1.413   1_556  A
C236        C653   1.413       .  A
C237        C238   1.375       .  A
C237       H1061   1.082       .  S
C238        H250   1.082       .  S
C239        C240   1.375       .  A
C239        H251   1.081       .  S
C240        H252   1.071       .  S
C241        C648   1.374       .  A
C241        H253   1.083       .  S
C242        C647   1.374   1_545  A
C242        H254   1.068       .  S
C243        C244   1.377       .  A
C243        H255   1.083       .  S
C244        H256   1.083       .  S
C245       C1041   1.411   1_455  A
C247        C642   1.413   1_545  A
C248       C1046   1.423       .  A
C248        C263   1.521       .  S
H249       C1049   1.082       .  S
N259       C1075   1.366   1_455  A
N259        C260   1.369       .  A
N259        C313   1.431       .  S
C260        C261   1.386   1_455  A
C260        C296   1.521       .  S
C261       C1074   1.381       .  A
C261        H264   1.080       .  S
C262       C1073   1.381       .  A
C262        C263   1.383       .  A
C262        H265   1.082       .  S
C263       N1071   1.366       .  A
O266        C274   1.271       .  A
O266       Co286   1.993       .  S
O267        C275   1.272       .  A
O267       Co287   1.921       .  S
O268        C276   1.274       .  A
O268       Co288   2.012       .  S
O269        C277   1.258       .  A
O269       Co289   1.991       .  S
O270        C276   1.264       .  A
O270       Co287   1.945       .  S
O271        C277   1.252       .  A
O271       Co286   1.966       .  S
O272        C275   1.302       .  A
O272       Co289   2.122       .  S
O273        C274   1.281       .  A
O273       Co288   2.052       .  S
C274        C366   1.518       .  S
C275        C299   1.517       .  S
C276        C352   1.472       .  S
C277        C310   1.459       .  S
O278        C291   1.287       .  A
O278       Co286   2.067       .  S
O279        C292   1.276       .  A
O279       Co287   2.058       .  S
O280        C293   1.252       .  A
O280       Co288   1.944       .  S
O281        C294   1.262       .  A
O281       Co289   1.871       .  S
O282        C294   1.290       .  A
O282       Co287   2.086       .  S
O283        C293   1.266       .  A
O283       Co286   1.990       .  S
O284        C291   1.270       .  A
O284       Co289   1.976       .  S
O285        C292   1.255       .  A
O285       Co288   1.970       .  S
Co286       O290   2.035       .  S
Co287       O290   2.011       .  S
Co288       O290   2.017       .  S
Co289       O290   2.001       .  S
C291        C341   1.500       .  S
C292        C383   1.494       .  S
C293        C394   1.450       .  S
C294        C327   1.446       .  S
C295        C296   1.411       .  A
C295        C300   1.425       .  A
C295        H302   1.083       .  S
C296        C297   1.422       .  A
C297        C298   1.406       .  A
C297        N304   1.433       .  S
C298        C299   1.407       .  A
C298        H303   1.084       .  S
C299        C300   1.421       .  A
C300        N301   1.437       .  S
N301        H305   1.046       .  S
N301        H306   1.045       .  S
N304        H307   1.045       .  S
N304        H308   1.042       .  S
C309        C310   1.401       .  A
C309        H316   1.085       .  S
C310        C311   1.408       .  A
C311        N318   1.432       .  S
C312        C313   1.402       .  A
C312        H317   1.084   1_455  S
C313        C314   1.417       .  A
C314        N315   1.440       .  S
N315        H319   1.046       .  S
N315        H320   1.042       .  S
N318        H321   1.046       .  S
C323        C324   1.396       .  A
C323        C328   1.397       .  A
C323        H330   1.084       .  S
C324        C325   1.409       .  A
C325        C326   1.390       .  A
C325        N332   1.433       .  S
C326        C327   1.394       .  A
C326        H331   1.082       .  S
C327        C328   1.409       .  A
C328        N329   1.436       .  S
N329        H333   1.046       .  S
N329        H334   1.045       .  S
N332        H335   1.046       .  S
N332        H336   1.046       .  S
C337        C342   1.414       .  A
C337        H344   1.083       .  S
C338        C339   1.425       .  A
C339        N346   1.436       .  S
C340        C341   1.403       .  A
C340        H345   1.083       .  S
C341        C342   1.415       .  A
C342        N343   1.436       .  S
N343        H347   1.045       .  S
N343        H348   1.043       .  S
N346        H349   1.039       .  S
N346        H350   1.045       .  S
C351        C352   1.406       .  A
C351        C356   1.389       .  A
C351        H358   1.083       .  S
C352        C353   1.413       .  A
C353        C354   1.400       .  A
C353        N360   1.438       .  S
C354        C355   1.403       .  A
C354        H359   1.085       .  S
C355        C356   1.408       .  A
C356        N357   1.431       .  S
N357        H361   1.043       .  S
N357        H362   1.045       .  S
N360        H363   1.046       .  S
N360        H364   1.046       .  S
C365        C366   1.410       .  A
C365        C370   1.417       .  A
C365        H372   1.083       .  S
C366        C367   1.420       .  A
C367        C368   1.420       .  A
C367        N374   1.437       .  S
C368        C369   1.410       .  A
C369        C370   1.413       .  A
C370        N371   1.425       .  S
N371        H375   1.046   1_556  S
N371        H376   1.046       .  S
N374        H377   1.045       .  S
C379        C380   1.411       .  A
C379        C384   1.408       .  A
C379        H386   1.084       .  S
C380        C381   1.410       .  A
C381        C382   1.418       .  A
C381        N388   1.435       .  S
C382        C383   1.409       .  A
C382        H387   1.081       .  S
C383        C384   1.416       .  A
C384        N385   1.439       .  S
N385        H389   1.046       .  S
N385        H390   1.043       .  S
N388        H392   1.046       .  S
C393        C394   1.397       .  A
C393        C398   1.386       .  A
C393        H400   1.085       .  S
C394        C395   1.418       .  A
C395        C396   1.393       .  A
C395        N402   1.439       .  S
C396        C397   1.397       .  A
C396        H401   1.084       .  S
C397        C398   1.406       .  A
C398        N399   1.432       .  S
N399        H403   1.046   1_556  S
N399        H404   1.044       .  S
N402        H405   1.042       .  S
N402        H406   1.046       .  S
N407        C614   1.353       .  A
N407        C408   1.361       .  A
N407        C583   1.457   1_556  S
C408        C612   1.384       .  A
C408        C652   1.468   1_556  S
C409        C611   1.384       .  A
C409        C410   1.363       .  A
C409        H412   1.083       .  S
C410        C411   1.376       .  A
C410        H413   1.082       .  S
C411        N610   1.353       .  A
C411        C600   1.458       .  S
N414        C418   1.362       .  A
N414        C415   1.377       .  A
N414        C775   1.466   1_554  S
C415        C416   1.383       .  A
C415        C651   1.482       .  S
C416        C417   1.347       .  A
C416        H419   1.083       .  S
C417        C418   1.377       .  A
C417        H420   1.083       .  S
C418        C558   1.462       .  S
N421        C425   1.358       .  A
N421        C422   1.370       .  A
N421        C541   1.460   1_554  S
C422        C423   1.391       .  A
C422        C450   1.503   1_554  S
C423        C424   1.357       .  A
C424        C425   1.371       .  A
C424        H427   1.083       .  S
C425        C527   1.457       .  S
N428        C433   1.350       .  A
N428        C432   1.346       .  A
N428        H460   1.044       .  S
N429       C1248   1.359       .  A
N429        C843   1.356   1_565  A
N430        C435   1.362       .  A
N430        C434   1.363       .  A
N430        H461   1.042   1_554  S
N431        C438   1.351       .  A
N431        C642   1.351       .  A
C432        C440   1.392       .  A
C432       C1260   1.411       .  A
C433        C449   1.392       .  A
C433        C441   1.380       .  A
C434        C442   1.386       .  A
C434        C451   1.432       .  A
C435        C450   1.431   1_554  A
C435        C443   1.383       .  A
C436       N1241   1.359   1_455  A
C436        C651   1.427       .  A
C436        C444   1.386       .  A
C437        N835   1.356       .  A
C437       C1263   1.423       .  A
C437        C445   1.382   1_655  A
C438        C446   1.385       .  A
C438        C449   1.413       .  A
C439        N634   1.351       .  A
C439        C650   1.390       .  A
C440        C441   1.375       .  A
C440       H1264   1.082       .  S
C441        H453   1.082       .  S
C442        C443   1.374       .  A
C442        H454   1.081       .  S
C443        H455   1.071       .  S
C444        H456   1.083   1_554  S
C445        H457   1.068       .  S
C446        C447   1.377       .  A
C446        H458   1.083       .  S
C447        C642   1.390       .  A
C447        H459   1.083       .  S
C448       C1244   1.411   1_455  A
C448        C639   1.427       .  A
C448        C618   1.482       .  S
C449        C611   1.468       .  S
C451       C1249   1.423       .  A
C451        C466   1.522       .  S
H452       C1252   1.082       .  S
N462       C1278   1.366   1_455  A
N462        C463   1.369       .  A
N462        C516   1.431       .  S
C463        C464   1.386   1_455  A
C463        C499   1.521       .  S
C464       C1277   1.381       .  A
C464        H467   1.080       .  S
C465       C1276   1.381       .  A
C465        C466   1.384       .  A
C465        H468   1.082       .  S
C466       N1274   1.366       .  A
O469        C477   1.271       .  A
O469       Co489   1.993       .  S
O470        C478   1.272       .  A
O470       Co490   1.921       .  S
O471        C479   1.275       .  A
O471       Co491   2.013       .  S
O472        C480   1.258       .  A
O472       Co492   1.991       .  S
O473        C479   1.264       .  A
O473       Co490   1.945       .  S
O474        C480   1.252       .  A
O474       Co489   1.966       .  S
O475        C478   1.302       .  A
O475       Co492   2.122       .  S
O476        C477   1.280       .  A
O476       Co491   2.052       .  S
C477        C569   1.519       .  S
C478        C502   1.516       .  S
C479        C555   1.473       .  S
C480        C513   1.459       .  S
O481        C494   1.287       .  A
O481       Co489   2.066       .  S
O482        C495   1.276       .  A
O482       Co490   2.058       .  S
O483        C496   1.252       .  A
O483       Co491   1.944       .  S
O484        C497   1.262       .  A
O484       Co492   1.872       .  S
O485        C497   1.290       .  A
O485       Co490   2.085       .  S
O486        C496   1.266       .  A
O486       Co489   1.990       .  S
O487        C494   1.270       .  A
O487       Co492   1.976       .  S
O488        C495   1.255       .  A
O488       Co491   1.969       .  S
Co489       O493   2.035       .  S
Co490       O493   2.012       .  S
Co491       O493   2.017       .  S
Co492       O493   2.001       .  S
C494        C544   1.500       .  S
C495        C586   1.493       .  S
C496        C597   1.450       .  S
C497        C530   1.446       .  S
C498        C499   1.411       .  A
C498        C503   1.425       .  A
C498        H505   1.083       .  S
C499        C500   1.422       .  A
C500        C501   1.406       .  A
C500        N507   1.433       .  S
C501        C502   1.407       .  A
C501        H506   1.084       .  S
C502        C503   1.421       .  A
C503        N504   1.437       .  S
N504        H508   1.046       .  S
N504        H509   1.045       .  S
N507        H510   1.045       .  S
N507        H511   1.042       .  S
C512        C513   1.401       .  A
C512        C720   1.394       .  A
C512        H519   1.085       .  S
C513        C514   1.408       .  A
C514        C718   1.395       .  A
C514        N521   1.432       .  S
C515        C717   1.394   1_554  A
C515        C516   1.402       .  A
C515        H520   1.084   1_455  S
C516        C517   1.417       .  A
C517        C715   1.394   1_554  A
C517        N518   1.440       .  S
N518        H522   1.046       .  S
N518        H523   1.042       .  S
N521        H524   1.046       .  S
N521        H728   1.045       .  S
H525        N724   1.045       .  S
C526        C527   1.396       .  A
C526        C531   1.397       .  A
C526        H533   1.084       .  S
C527        C528   1.409       .  A
C528        C529   1.390       .  A
C528        N535   1.433       .  S
C529        C530   1.394       .  A
C529        H534   1.082       .  S
C530        C531   1.409       .  A
C531        N532   1.436       .  S
N532        H536   1.046       .  S
N532        H537   1.045       .  S
N535        H538   1.046       .  S
N535        H539   1.045       .  S
C540        C744   1.408       .  A
C540        C545   1.414       .  A
C540        H547   1.083       .  S
C541        C743   1.408       .  A
C541        C542   1.425       .  A
C542        C746   1.412       .  A
C542        N549   1.435   1_556  S
C543        C745   1.412       .  A
C543        C544   1.403       .  A
C543        H548   1.083       .  S
C544        C545   1.415       .  A
C545        N546   1.436       .  S
N546        H550   1.045       .  S
N546        H551   1.043       .  S
N549        H552   1.039       .  S
N549        H553   1.045       .  S
C554        C555   1.406       .  A
C554        C559   1.390       .  A
C554        H561   1.083       .  S
C555        C556   1.413       .  A
C556        C557   1.400       .  A
C556        N563   1.438       .  S
C557        C558   1.403       .  A
C557        H562   1.085       .  S
C558        C559   1.408       .  A
C559        N560   1.431       .  S
N560        H564   1.043       .  S
N560        H565   1.045       .  S
N563        H566   1.046       .  S
N563        H567   1.046       .  S
C568        C569   1.409       .  A
C568        C573   1.417       .  A
C568        H575   1.083       .  S
C569        C570   1.420       .  A
C570        C571   1.420       .  A
C570        N577   1.437       .  S
C571        C572   1.410       .  A
C571        H779   1.083       .  S
C572        N617   1.466       .  S
C572        C573   1.413       .  A
C573        N574   1.425       .  S
N574        H578   1.046       .  S
N574        H579   1.046       .  S
H576        C774   1.083       .  S
N577        H580   1.045       .  S
N577        H784   1.046       .  S
H581        N780   1.046       .  S
C582        C583   1.411       .  A
C582        C587   1.408       .  A
C582        H589   1.084       .  S
C583        C584   1.409       .  A
C584        C585   1.418       .  A
C584        N591   1.435       .  S
C585        C586   1.409       .  A
C585        H590   1.080       .  S
C586        C587   1.416       .  A
C587        N588   1.439       .  S
N588        H592   1.046       .  S
N588        H593   1.043       .  S
N591        H797   1.045       .  S
N591        H595   1.046       .  S
H594        N794   1.045       .  S
C596        C597   1.397       .  A
C596        C601   1.385       .  A
C596        H603   1.085       .  S
C597        C598   1.419       .  A
C598        C599   1.394       .  A
C598        N605   1.439       .  S
C599        C600   1.397       .  A
C599        H604   1.084       .  S
C600        C601   1.406       .  A
C601        N602   1.432       .  S
N602        H606   1.046       .  S
N602        H607   1.044       .  S
N605        H608   1.042       .  S
N605        H609   1.046       .  S
N610        C611   1.361       .  A
N610        C786   1.457       .  S
C612        C613   1.363       .  A
C612        H615   1.083       .  S
C613        C614   1.376       .  A
C613        H616   1.082       .  S
C614        C803   1.458       .  S
N617        C621   1.363       .  A
N617        C618   1.377       .  A
C618        C619   1.383       .  A
C619        C620   1.347       .  A
C619        H622   1.083       .  S
C620        C621   1.377       .  A
C620        H623   1.083       .  S
C621        C761   1.462       .  S
N624        C628   1.358       .  A
N624        C625   1.370       .  A
N624        C744   1.460       .  S
C625        C626   1.391       .  A
C625        C653   1.503       .  S
C626        C627   1.356       .  A
C627        C628   1.371       .  A
C627        H630   1.083       .  S
C628        C730   1.456       .  S
N631        C636   1.349   1_556  A
N631        C635   1.346   1_556  A
N631        H663   1.044       .  S
N632       C1451   1.359       .  A
N632       C1046   1.356   1_565  A
N633        C638   1.362       .  A
N633        C637   1.363       .  A
N633        H664   1.042       .  S
N634        C641   1.351       .  A
C635        C643   1.392       .  A
C635       C1463   1.411       .  A
C636        C652   1.392       .  A
C636        C644   1.380       .  A
C637        C645   1.386       .  A
C637        C654   1.432       .  A
C638        C653   1.431       .  A
C638        C646   1.383       .  A
C639       N1444   1.359   1_455  A
C639        C647   1.387       .  A
C640       N1038   1.356       .  A
C640       C1466   1.423       .  A
C640        C648   1.382   1_655  A
C641        C649   1.385       .  A
C641        C652   1.413   1_556  A
C643        C644   1.375       .  A
C643       H1467   1.082       .  S
C644        H656   1.082       .  S
C645        C646   1.375       .  A
C645        H657   1.081       .  S
C646        H658   1.071       .  S
C647        H659   1.083       .  S
C648        H660   1.068       .  S
C649        C650   1.377       .  A
C649        H661   1.083       .  S
C650        H662   1.083       .  S
C651       C1447   1.411   1_455  A
C654       C1452   1.423       .  A
C654        C669   1.521       .  S
H655       C1455   1.082       .  S
N665       C1481   1.366   1_455  A
N665        C666   1.369       .  A
N665        C719   1.431       .  S
C666        C667   1.386   1_455  A
C666        C702   1.521       .  S
C667       C1480   1.381       .  A
C667        H670   1.080       .  S
C668       C1479   1.381       .  A
C668        C669   1.383       .  A
C668        H671   1.082       .  S
C669       N1477   1.366       .  A
O672        C680   1.271       .  A
O672       Co692   1.993       .  S
O673        C681   1.272       .  A
O673       Co693   1.921       .  S
O674        C682   1.274       .  A
O674       Co694   2.012       .  S
O675        C683   1.258       .  A
O675       Co695   1.991       .  S
O676        C682   1.264       .  A
O676       Co693   1.945       .  S
O677        C683   1.252       .  A
O677       Co692   1.966       .  S
O678        C681   1.302       .  A
O678       Co695   2.122       .  S
O679        C680   1.281       .  A
O679       Co694   2.052       .  S
C680        C772   1.518       .  S
C681        C705   1.517       .  S
C682        C758   1.472       .  S
C683        C716   1.459       .  S
O684        C697   1.287       .  A
O684       Co692   2.067       .  S
O685        C698   1.276       .  A
O685       Co693   2.058       .  S
O686        C699   1.252       .  A
O686       Co694   1.944       .  S
O687        C700   1.262       .  A
O687       Co695   1.871       .  S
O688        C700   1.290       .  A
O688       Co693   2.086       .  S
O689        C699   1.266       .  A
O689       Co692   1.990       .  S
O690        C697   1.270       .  A
O690       Co695   1.976       .  S
O691        C698   1.255       .  A
O691       Co694   1.970       .  S
Co692       O696   2.035       .  S
Co693       O696   2.011       .  S
Co694       O696   2.017       .  S
Co695       O696   2.001       .  S
C697        C747   1.500       .  S
C698        C789   1.494       .  S
C699        C800   1.450       .  S
C700        C733   1.446       .  S
C701        C702   1.411       .  A
C701        C706   1.425       .  A
C701        H708   1.083       .  S
C702        C703   1.422       .  A
C703        C704   1.406       .  A
C703        N710   1.433       .  S
C704        C705   1.407       .  A
C704        H709   1.084       .  S
C705        C706   1.421       .  A
C706        N707   1.437       .  S
N707        H711   1.046       .  S
N707        H712   1.045       .  S
N710        H713   1.045       .  S
N710        H714   1.042       .  S
C715        C716   1.401       .  A
C715        H722   1.085       .  S
C716        C717   1.408       .  A
C717        N724   1.432       .  S
C718        C719   1.402       .  A
C718        H723   1.084   1_455  S
C719        C720   1.417       .  A
C720        N721   1.440       .  S
N721        H725   1.046       .  S
N721        H726   1.042       .  S
N724        H727   1.046       .  S
C729        C730   1.396       .  A
C729        C734   1.397       .  A
C729        H736   1.084       .  S
C730        C731   1.409       .  A
C731        C732   1.390       .  A
C731        N738   1.433       .  S
C732        C733   1.394       .  A
C732        H737   1.082       .  S
C733        C734   1.409       .  A
C734        N735   1.436       .  S
N735        H739   1.046       .  S
N735        H740   1.045       .  S
N738        H741   1.046       .  S
N738        H742   1.046       .  S
C743        C748   1.414       .  A
C743        H750   1.083       .  S
C744        C745   1.425       .  A
C745        N752   1.436       .  S
C746        C747   1.403       .  A
C746        H751   1.083       .  S
C747        C748   1.415       .  A
C748        N749   1.436       .  S
N749        H753   1.045       .  S
N749        H754   1.043       .  S
N752        H755   1.039       .  S
N752        H756   1.045       .  S
C757        C758   1.406       .  A
C757        C762   1.389       .  A
C757        H764   1.083       .  S
C758        C759   1.413       .  A
C759        C760   1.400       .  A
C759        N766   1.438       .  S
C760        C761   1.403       .  A
C760        H765   1.085       .  S
C761        C762   1.408       .  A
C762        N763   1.431       .  S
N763        H767   1.043       .  S
N763        H768   1.045       .  S
N766        H769   1.046       .  S
N766        H770   1.046       .  S
C771        C772   1.410       .  A
C771        C776   1.417       .  A
C771        H778   1.083       .  S
C772        C773   1.420       .  A
C773        C774   1.420       .  A
C773        N780   1.437       .  S
C774        C775   1.410       .  A
C775        C776   1.413       .  A
C776        N777   1.425       .  S
N777        H781   1.046   1_556  S
N777        H782   1.046       .  S
N780        H783   1.045       .  S
C785        C786   1.411       .  A
C785        C790   1.408       .  A
C785        H792   1.084       .  S
C786        C787   1.410       .  A
C787        C788   1.418       .  A
C787        N794   1.435       .  S
C788        C789   1.409       .  A
C788        H793   1.081       .  S
C789        C790   1.416       .  A
C790        N791   1.439       .  S
N791        H795   1.046       .  S
N791        H796   1.043       .  S
N794        H798   1.046       .  S
C799        C800   1.397       .  A
C799        C804   1.386       .  A
C799        H806   1.085       .  S
C800        C801   1.418       .  A
C801        C802   1.393       .  A
C801        N808   1.439       .  S
C802        C803   1.397       .  A
C802        H807   1.084       .  S
C803        C804   1.406       .  A
C804        N805   1.432       .  S
N805        H809   1.046   1_556  S
N805        H810   1.044       .  S
N808        H811   1.042       .  S
N808        H812   1.046       .  S
N813       C1020   1.353       .  A
N813        C814   1.361       .  A
N813        C989   1.457   1_556  S
C814       C1018   1.384       .  A
C814       C1058   1.468   1_556  S
C815       C1017   1.384       .  A
C815        C816   1.363       .  A
C815        H818   1.083       .  S
C816        C817   1.376       .  A
C816        H819   1.082       .  S
C817       N1016   1.353       .  A
C817       C1006   1.458       .  S
N820        C824   1.362       .  A
N820        C821   1.377       .  A
N820       C1181   1.466   1_554  S
C821        C822   1.383       .  A
C821       C1057   1.482       .  S
C822        C823   1.347       .  A
C822        H825   1.083       .  S
C823        C824   1.377       .  A
C823        H826   1.083       .  S
C824        C964   1.462       .  S
N827        C831   1.358       .  A
N827        C828   1.370       .  A
N827        C947   1.460   1_554  S
C828        C829   1.391       .  A
C828        C856   1.503   1_554  S
C829        C830   1.357       .  A
C829       H1238   1.083   1_545  S
C830        C831   1.371       .  A
C830        H833   1.083       .  S
C831        C933   1.457       .  S
H832       C1235   1.083       .  S
N834        C839   1.350       .  A
N834        C838   1.346       .  A
N834        H866   1.044       .  S
N836        C841   1.362       .  A
N836        C840   1.363       .  A
N836        H867   1.042   1_554  S
N837        C844   1.351       .  A
N837       C1048   1.351       .  A
C838        C846   1.392       .  A
C839        C855   1.392       .  A
C839        C847   1.380       .  A
C840        C848   1.386       .  A
C840        C857   1.432       .  A
C841        C856   1.431   1_554  A
C841        C849   1.383       .  A
C842       C1057   1.427       .  A
C842        C850   1.386       .  A
C843        C851   1.382       .  A
C844        C852   1.385       .  A
C844        C855   1.413       .  A
C845       N1040   1.351       .  A
C845       C1056   1.390       .  A
C845       C1262   1.414       .  A
C846        C847   1.375       .  A
C847        H859   1.082       .  S
C848        C849   1.374       .  A
C848        H860   1.081       .  S
C849        H861   1.071       .  S
C850       C1257   1.374       .  A
C850        H862   1.083   1_554  S
C851       C1256   1.374   1_545  A
C851        H863   1.068       .  S
C852        C853   1.377       .  A
C852        H864   1.083       .  S
C853       C1048   1.390       .  A
C853        H865   1.083       .  S
C854       C1045   1.427       .  A
C854       C1024   1.482       .  S
C855       C1017   1.468       .  S
C856       C1251   1.414   1_545  A
C857        C872   1.522       .  S
N868        C869   1.369       .  A
N868        C922   1.431       .  S
C869        C870   1.386       .  A
C869        C905   1.521       .  S
C870        H873   1.080       .  S
C871        C872   1.384       .  A
C871        H874   1.082       .  S
O875        C883   1.271       .  A
O875       Co895   1.993       .  S
O876        C884   1.272       .  A
O876       Co896   1.921       .  S
O877        C885   1.275       .  A
O877       Co897   2.013       .  S
O878        C886   1.258       .  A
O878       Co898   1.991       .  S
O879        C885   1.264       .  A
O879       Co896   1.945       .  S
O880        C886   1.252       .  A
O880       Co895   1.966       .  S
O881        C884   1.302       .  A
O881       Co898   2.122       .  S
O882        C883   1.280       .  A
O882       Co897   2.052       .  S
C883        C975   1.519       .  S
C884        C908   1.516       .  S
C885        C961   1.473       .  S
C886        C919   1.459       .  S
O887        C900   1.287       .  A
O887       Co895   2.066       .  S
O888        C901   1.276       .  A
O888       Co896   2.058       .  S
O889        C902   1.252       .  A
O889       Co897   1.944       .  S
O890        C903   1.262       .  A
O890       Co898   1.872       .  S
O891        C903   1.290       .  A
O891       Co896   2.085       .  S
O892        C902   1.266       .  A
O892       Co895   1.990       .  S
O893        C900   1.270       .  A
O893       Co898   1.976       .  S
O894        C901   1.255       .  A
O894       Co897   1.969       .  S
Co895       O899   2.035       .  S
Co896       O899   2.012       .  S
Co897       O899   2.017       .  S
Co898       O899   2.001       .  S
C900        C950   1.500       .  S
C901        C992   1.493       .  S
C902       C1003   1.450       .  S
C903        C936   1.446       .  S
C904        C905   1.411       .  A
C904        C909   1.425       .  A
C904        H911   1.083       .  S
C905        C906   1.422       .  A
C906        C907   1.406       .  A
C906        N913   1.433       .  S
C907        C908   1.407       .  A
C907        H912   1.084       .  S
C908        C909   1.421       .  A
C909        N910   1.437       .  S
N910        H914   1.046       .  S
N910        H915   1.045       .  S
N913        H916   1.045       .  S
N913        H917   1.042       .  S
C918        C919   1.401       .  A
C918       C1126   1.394       .  A
C918        H925   1.085       .  S
C919        C920   1.408       .  A
C920       C1124   1.395       .  A
C920        N927   1.432       .  S
C921       C1123   1.394   1_554  A
C921        C922   1.402       .  A
C921        H926   1.084       .  S
C922        C923   1.417       .  A
C923       C1121   1.394   1_554  A
C923        N924   1.440       .  S
N924        H928   1.046       .  S
N924        H929   1.042       .  S
N927        H930   1.046       .  S
N927       H1134   1.045       .  S
H931       N1130   1.045       .  S
C932        C933   1.396       .  A
C932        C937   1.397       .  A
C932        H939   1.084       .  S
C933        C934   1.409       .  A
C934        C935   1.390       .  A
C934        N941   1.433       .  S
C935        C936   1.394       .  A
C935        H940   1.082       .  S
C936        C937   1.409       .  A
C937        N938   1.436       .  S
N938        H942   1.046       .  S
N938        H943   1.045       .  S
N941        H944   1.046       .  S
N941        H945   1.045       .  S
C946       C1150   1.408       .  A
C946        C951   1.414       .  A
C946        H953   1.083       .  S
C947       C1149   1.408       .  A
C947        C948   1.425       .  A
C948       C1152   1.412       .  A
C948        N955   1.435   1_556  S
C949       C1151   1.412       .  A
C949        C950   1.403       .  A
C949        H954   1.083       .  S
C950        C951   1.415       .  A
C951        N952   1.436       .  S
N952        H956   1.045       .  S
N952        H957   1.043       .  S
N955        H958   1.039       .  S
N955        H959   1.045       .  S
C960        C961   1.406       .  A
C960        C965   1.390       .  A
C960        H967   1.083       .  S
C961        C962   1.413       .  A
C962        C963   1.400       .  A
C962        N969   1.438       .  S
C963        C964   1.403       .  A
C963        H968   1.085       .  S
C964        C965   1.408       .  A
C965        N966   1.431       .  S
N966        H970   1.043       .  S
N966        H971   1.045       .  S
N969        H972   1.046       .  S
N969        H973   1.046       .  S
C974        C975   1.409       .  A
C974        C979   1.417       .  A
C974        H981   1.083       .  S
C975        C976   1.420       .  A
C976        C977   1.420       .  A
C976        N983   1.437       .  S
C977        C978   1.410       .  A
C977       H1185   1.083       .  S
C978       N1023   1.466       .  S
C978        C979   1.413       .  A
C979        N980   1.425       .  S
N980        H984   1.046       .  S
N980        H985   1.046       .  S
H982       C1180   1.083       .  S
N983        H986   1.045       .  S
N983       H1190   1.046       .  S
H987       N1186   1.046       .  S
C988        C989   1.411       .  A
C988        C993   1.408       .  A
C988        H995   1.084       .  S
C989        C990   1.409       .  A
C990        C991   1.418       .  A
C990        N997   1.435       .  S
C991        C992   1.409       .  A
C991        H996   1.080       .  S
C992        C993   1.416       .  A
C993        N994   1.439       .  S
N994        H998   1.046       .  S
N994        H999   1.043       .  S
N997       H1203   1.045       .  S
N997       H1001   1.046       .  S
H1000      N1200   1.045       .  S
C1002      C1003   1.397       .  A
C1002      C1007   1.385       .  A
C1002      H1009   1.085       .  S
C1003      C1004   1.419       .  A
C1004      C1005   1.394       .  A
C1004      N1011   1.439       .  S
C1005      C1006   1.397       .  A
C1005      H1010   1.084       .  S
C1006      C1007   1.406       .  A
C1007      N1008   1.432       .  S
N1008      H1012   1.046       .  S
N1008      H1013   1.044       .  S
N1011      H1014   1.042       .  S
N1011      H1015   1.046       .  S
N1016      C1017   1.361       .  A
N1016      C1192   1.457       .  S
C1018      C1019   1.363       .  A
C1018      H1021   1.083       .  S
C1019      C1020   1.376       .  A
C1019      H1022   1.082       .  S
C1020      C1209   1.458       .  S
N1023      C1027   1.363       .  A
N1023      C1024   1.377       .  A
C1024      C1025   1.383       .  A
C1025      C1026   1.347       .  A
C1025      H1028   1.083       .  S
C1026      C1027   1.377       .  A
C1026      H1029   1.083       .  S
C1027      C1167   1.462       .  S
N1030      C1034   1.358       .  A
N1030      C1031   1.370       .  A
N1030      C1150   1.460       .  S
C1031      C1032   1.391       .  A
C1031      C1059   1.503       .  S
C1032      C1033   1.356       .  A
C1032      H1441   1.083   1_545  S
C1033      C1034   1.371       .  A
C1033      H1036   1.083       .  S
C1034      C1136   1.456       .  S
H1035      C1438   1.083       .  S
N1037      C1042   1.349   1_556  A
N1037      C1041   1.346   1_556  A
N1037      H1069   1.044       .  S
N1039      C1044   1.362       .  A
N1039      C1043   1.363       .  A
N1039      H1070   1.042       .  S
N1040      C1047   1.351       .  A
C1041      C1049   1.392       .  A
C1042      C1058   1.392       .  A
C1042      C1050   1.380       .  A
C1043      C1051   1.386       .  A
C1043      C1060   1.432       .  A
C1044      C1059   1.431       .  A
C1044      C1052   1.383       .  A
C1045      C1053   1.387       .  A
C1046      C1054   1.382       .  A
C1047      C1055   1.385       .  A
C1047      C1058   1.413   1_556  A
C1048      C1465   1.413       .  A
C1049      C1050   1.375       .  A
C1050      H1062   1.082       .  S
C1051      C1052   1.375       .  A
C1051      H1063   1.081       .  S
C1052      H1064   1.071       .  S
C1053      C1460   1.374       .  A
C1053      H1065   1.083       .  S
C1054      C1459   1.374   1_545  A
C1054      H1066   1.068       .  S
C1055      C1056   1.377       .  A
C1055      H1067   1.083       .  S
C1056      H1068   1.083       .  S
C1059      C1454   1.413   1_545  A
C1060      C1075   1.521       .  S
N1071      C1072   1.369       .  A
N1071      C1125   1.431       .  S
C1072      C1073   1.386       .  A
C1072      C1108   1.521       .  S
C1073      H1076   1.080       .  S
C1074      C1075   1.383       .  A
C1074      H1077   1.082       .  S
O1078      C1086   1.271       .  A
O1078     Co1098   1.993       .  S
O1079      C1087   1.272       .  A
O1079     Co1099   1.921       .  S
O1080      C1088   1.274       .  A
O1080     Co1100   2.012       .  S
O1081      C1089   1.258       .  A
O1081     Co1101   1.991       .  S
O1082      C1088   1.264       .  A
O1082     Co1099   1.945       .  S
O1083      C1089   1.252       .  A
O1083     Co1098   1.966       .  S
O1084      C1087   1.302       .  A
O1084     Co1101   2.122       .  S
O1085      C1086   1.281       .  A
O1085     Co1100   2.052       .  S
C1086      C1178   1.518       .  S
C1087      C1111   1.517       .  S
C1088      C1164   1.472       .  S
C1089      C1122   1.458       .  S
O1090      C1103   1.287       .  A
O1090     Co1098   2.067       .  S
O1091      C1104   1.276       .  A
O1091     Co1099   2.058       .  S
O1092      C1105   1.252       .  A
O1092     Co1100   1.944       .  S
O1093      C1106   1.262       .  A
O1093     Co1101   1.871       .  S
O1094      C1106   1.290       .  A
O1094     Co1099   2.086       .  S
O1095      C1105   1.266       .  A
O1095     Co1098   1.990       .  S
O1096      C1103   1.270       .  A
O1096     Co1101   1.976       .  S
O1097      C1104   1.255       .  A
O1097     Co1100   1.970       .  S
Co1098     O1102   2.035       .  S
Co1099     O1102   2.011       .  S
Co1100     O1102   2.017       .  S
Co1101     O1102   2.001       .  S
C1103      C1153   1.500       .  S
C1104      C1195   1.494       .  S
C1105      C1206   1.450       .  S
C1106      C1139   1.446       .  S
C1107      C1108   1.411       .  A
C1107      C1112   1.425       .  A
C1107      H1114   1.083       .  S
C1108      C1109   1.422       .  A
C1109      C1110   1.406       .  A
C1109      N1116   1.433       .  S
C1110      C1111   1.407       .  A
C1110      H1115   1.084       .  S
C1111      C1112   1.421       .  A
C1112      N1113   1.437       .  S
N1113      H1117   1.046       .  S
N1113      H1118   1.045       .  S
N1116      H1119   1.045       .  S
N1116      H1120   1.042       .  S
C1121      C1122   1.401       .  A
C1121      H1128   1.085       .  S
C1122      C1123   1.408       .  A
C1123      N1130   1.432       .  S
C1124      C1125   1.402       .  A
C1124      H1129   1.084       .  S
C1125      C1126   1.417       .  A
C1126      N1127   1.440       .  S
N1127      H1131   1.046       .  S
N1127      H1132   1.042       .  S
N1130      H1133   1.046       .  S
C1135      C1136   1.396       .  A
C1135      C1140   1.397       .  A
C1135      H1142   1.084       .  S
C1136      C1137   1.409       .  A
C1137      C1138   1.390       .  A
C1137      N1144   1.433       .  S
C1138      C1139   1.394       .  A
C1138      H1143   1.082       .  S
C1139      C1140   1.409       .  A
C1140      N1141   1.436       .  S
N1141      H1145   1.046       .  S
N1141      H1146   1.045       .  S
N1144      H1147   1.046       .  S
N1144      H1148   1.046       .  S
C1149      C1154   1.414       .  A
C1149      H1156   1.083       .  S
C1150      C1151   1.425       .  A
C1151      N1158   1.436       .  S
C1152      C1153   1.403       .  A
C1152      H1157   1.083       .  S
C1153      C1154   1.415       .  A
C1154      N1155   1.436       .  S
N1155      H1159   1.045       .  S
N1155      H1160   1.043       .  S
N1158      H1161   1.039       .  S
N1158      H1162   1.045       .  S
C1163      C1164   1.406       .  A
C1163      C1168   1.389       .  A
C1163      H1170   1.083       .  S
C1164      C1165   1.413       .  A
C1165      C1166   1.400       .  A
C1165      N1172   1.438       .  S
C1166      C1167   1.403       .  A
C1166      H1171   1.085       .  S
C1167      C1168   1.408       .  A
C1168      N1169   1.431       .  S
N1169      H1173   1.043       .  S
N1169      H1174   1.045       .  S
N1172      H1175   1.046       .  S
N1172      H1176   1.046       .  S
C1177      C1178   1.410       .  A
C1177      C1182   1.417       .  A
C1177      H1184   1.083       .  S
C1178      C1179   1.420       .  A
C1179      C1180   1.420       .  A
C1179      N1186   1.437       .  S
C1180      C1181   1.410       .  A
C1181      C1182   1.413       .  A
C1182      N1183   1.425       .  S
N1183      H1187   1.046   1_556  S
N1183      H1188   1.046       .  S
N1186      H1189   1.045       .  S
C1191      C1192   1.411       .  A
C1191      C1196   1.408       .  A
C1191      H1198   1.084       .  S
C1192      C1193   1.410       .  A
C1193      C1194   1.418       .  A
C1193      N1200   1.435       .  S
C1194      C1195   1.409       .  A
C1194      H1199   1.081       .  S
C1195      C1196   1.416       .  A
C1196      N1197   1.439       .  S
N1197      H1201   1.046       .  S
N1197      H1202   1.043       .  S
N1200      H1204   1.046       .  S
C1205      C1206   1.397       .  A
C1205      C1210   1.386       .  A
C1205      H1212   1.085       .  S
C1206      C1207   1.418       .  A
C1207      C1208   1.393       .  A
C1207      N1214   1.439       .  S
C1208      C1209   1.397       .  A
C1208      H1213   1.084       .  S
C1209      C1210   1.406       .  A
C1210      N1211   1.432       .  S
N1211      H1215   1.046   1_556  S
N1211      H1216   1.044       .  S
N1214      H1217   1.042       .  S
N1214      H1218   1.046       .  S
N1219      C1426   1.353       .  A
N1219      C1220   1.361       .  A
N1219      C1395   1.457   1_556  S
C1220      C1424   1.384       .  A
C1220      C1464   1.468   1_556  S
C1221      C1423   1.384       .  A
C1221      C1222   1.363       .  A
C1221      H1224   1.083       .  S
C1222      C1223   1.376       .  A
C1222      H1225   1.082       .  S
C1223      N1422   1.353       .  A
C1223      C1412   1.458       .  S
N1226      C1230   1.362       .  A
N1226      C1227   1.377       .  A
N1226      C1587   1.466   1_554  S
C1227      C1228   1.383       .  A
C1227      C1463   1.482       .  S
C1228      C1229   1.347       .  A
C1228      H1231   1.083       .  S
C1229      C1230   1.377       .  A
C1229      H1232   1.083       .  S
C1230      C1370   1.462       .  S
N1233      C1237   1.358       .  A
N1233      C1234   1.370       .  A
N1233      C1353   1.460   1_554  S
C1234      C1235   1.391       .  A
C1234      C1262   1.503   1_554  S
C1235      C1236   1.357       .  A
C1236      C1237   1.371       .  A
C1236      H1239   1.083       .  S
C1237      C1339   1.457       .  S
N1240      C1245   1.350       .  A
N1240      C1244   1.346       .  A
N1240      H1272   1.044       .  S
N1242      C1247   1.362       .  A
N1242      C1246   1.363       .  A
N1242      H1273   1.042   1_554  S
N1243      C1250   1.351       .  A
N1243      C1454   1.351       .  A
C1244      C1252   1.392       .  A
C1245      C1261   1.392       .  A
C1245      C1253   1.380       .  A
C1246      C1254   1.386       .  A
C1246      C1263   1.432       .  A
C1247      C1262   1.431   1_554  A
C1247      C1255   1.383       .  A
C1248      C1463   1.427       .  A
C1248      C1256   1.386       .  A
C1249      C1257   1.382       .  A
C1250      C1258   1.385       .  A
C1250      C1261   1.413       .  A
C1251      N1446   1.351       .  A
C1251      C1462   1.390       .  A
C1252      C1253   1.375       .  A
C1253      H1265   1.082       .  S
C1254      C1255   1.374       .  A
C1254      H1266   1.081       .  S
C1255      H1267   1.071       .  S
C1256      H1268   1.083   1_554  S
C1257      H1269   1.068       .  S
C1258      C1259   1.377       .  A
C1258      H1270   1.083       .  S
C1259      C1454   1.390       .  A
C1259      H1271   1.083       .  S
C1260      C1451   1.427       .  A
C1260      C1430   1.482       .  S
C1261      C1423   1.468       .  S
C1263      C1278   1.522       .  S
N1274      C1275   1.369       .  A
N1274      C1328   1.431       .  S
C1275      C1276   1.386       .  A
C1275      C1311   1.521       .  S
C1276      H1279   1.080       .  S
C1277      C1278   1.384       .  A
C1277      H1280   1.082       .  S
O1281      C1289   1.271       .  A
O1281     Co1301   1.993       .  S
O1282      C1290   1.272       .  A
O1282     Co1302   1.921       .  S
O1283      C1291   1.275       .  A
O1283     Co1303   2.013       .  S
O1284      C1292   1.258       .  A
O1284     Co1304   1.991       .  S
O1285      C1291   1.264       .  A
O1285     Co1302   1.945       .  S
O1286      C1292   1.252       .  A
O1286     Co1301   1.966       .  S
O1287      C1290   1.302       .  A
O1287     Co1304   2.122       .  S
O1288      C1289   1.280       .  A
O1288     Co1303   2.052       .  S
C1289      C1381   1.519       .  S
C1290      C1314   1.516       .  S
C1291      C1367   1.473       .  S
C1292      C1325   1.459       .  S
O1293      C1306   1.287       .  A
O1293     Co1301   2.066       .  S
O1294      C1307   1.276       .  A
O1294     Co1302   2.058       .  S
O1295      C1308   1.252       .  A
O1295     Co1303   1.944       .  S
O1296      C1309   1.262       .  A
O1296     Co1304   1.872       .  S
O1297      C1309   1.290       .  A
O1297     Co1302   2.085       .  S
O1298      C1308   1.266       .  A
O1298     Co1301   1.990       .  S
O1299      C1306   1.270       .  A
O1299     Co1304   1.976       .  S
O1300      C1307   1.255       .  A
O1300     Co1303   1.969       .  S
Co1301     O1305   2.035       .  S
Co1302     O1305   2.012       .  S
Co1303     O1305   2.017       .  S
Co1304     O1305   2.001       .  S
C1306      C1356   1.500       .  S
C1307      C1398   1.493       .  S
C1308      C1409   1.450       .  S
C1309      C1342   1.446       .  S
C1310      C1311   1.411       .  A
C1310      C1315   1.425       .  A
C1310      H1317   1.083       .  S
C1311      C1312   1.422       .  A
C1312      C1313   1.406       .  A
C1312      N1319   1.433       .  S
C1313      C1314   1.407       .  A
C1313      H1318   1.084       .  S
C1314      C1315   1.421       .  A
C1315      N1316   1.437       .  S
N1316      H1320   1.046       .  S
N1316      H1321   1.045       .  S
N1319      H1322   1.045       .  S
N1319      H1323   1.042       .  S
C1324      C1325   1.401       .  A
C1324      C1532   1.394       .  A
C1324      H1331   1.085       .  S
C1325      C1326   1.408       .  A
C1326      C1530   1.395       .  A
C1326      N1333   1.432       .  S
C1327      C1529   1.394   1_554  A
C1327      C1328   1.402       .  A
C1327      H1332   1.084       .  S
C1328      C1329   1.417       .  A
C1329      C1527   1.394   1_554  A
C1329      N1330   1.440       .  S
N1330      H1334   1.046       .  S
N1330      H1335   1.042       .  S
N1333      H1336   1.046       .  S
N1333      H1540   1.045       .  S
H1337      N1536   1.045       .  S
C1338      C1339   1.396       .  A
C1338      C1343   1.397       .  A
C1338      H1345   1.084       .  S
C1339      C1340   1.409       .  A
C1340      C1341   1.390       .  A
C1340      N1347   1.433       .  S
C1341      C1342   1.394       .  A
C1341      H1346   1.082       .  S
C1342      C1343   1.409       .  A
C1343      N1344   1.436       .  S
N1344      H1348   1.046       .  S
N1344      H1349   1.045       .  S
N1347      H1350   1.046       .  S
N1347      H1351   1.045       .  S
C1352      C1556   1.408       .  A
C1352      C1357   1.414       .  A
C1352      H1359   1.083       .  S
C1353      C1555   1.408       .  A
C1353      C1354   1.425       .  A
C1354      C1558   1.412       .  A
C1354      N1361   1.435   1_556  S
C1355      C1557   1.412       .  A
C1355      C1356   1.403       .  A
C1355      H1360   1.083       .  S
C1356      C1357   1.415       .  A
C1357      N1358   1.436       .  S
N1358      H1362   1.045       .  S
N1358      H1363   1.043       .  S
N1361      H1364   1.039       .  S
N1361      H1365   1.045       .  S
C1366      C1367   1.406       .  A
C1366      C1371   1.390       .  A
C1366      H1373   1.083       .  S
C1367      C1368   1.413       .  A
C1368      C1369   1.400       .  A
C1368      N1375   1.438       .  S
C1369      C1370   1.403       .  A
C1369      H1374   1.085       .  S
C1370      C1371   1.408       .  A
C1371      N1372   1.431       .  S
N1372      H1376   1.043       .  S
N1372      H1377   1.045       .  S
N1375      H1378   1.046       .  S
N1375      H1379   1.046       .  S
C1380      C1381   1.409       .  A
C1380      C1385   1.417       .  A
C1380      H1387   1.083       .  S
C1381      C1382   1.420       .  A
C1382      C1383   1.420       .  A
C1382      N1389   1.437       .  S
C1383      C1384   1.410       .  A
C1383      H1591   1.083       .  S
C1384      N1429   1.466       .  S
C1384      C1385   1.413       .  A
C1385      N1386   1.425       .  S
N1386      H1390   1.046       .  S
N1386      H1391   1.046       .  S
H1388      C1586   1.083       .  S
N1389      H1392   1.045       .  S
N1389      H1596   1.046       .  S
H1393      N1592   1.046       .  S
C1394      C1395   1.411       .  A
C1394      C1399   1.408       .  A
C1394      H1401   1.084       .  S
C1395      C1396   1.409       .  A
C1396      C1397   1.418       .  A
C1396      N1403   1.435       .  S
C1397      C1398   1.409       .  A
C1397      H1402   1.080       .  S
C1398      C1399   1.416       .  A
C1399      N1400   1.439       .  S
N1400      H1404   1.046       .  S
N1400      H1405   1.043       .  S
N1403      H1609   1.045       .  S
N1403      H1407   1.046       .  S
H1406      N1606   1.045       .  S
C1408      C1409   1.397       .  A
C1408      C1413   1.385       .  A
C1408      H1415   1.085       .  S
C1409      C1410   1.419       .  A
C1410      C1411   1.394       .  A
C1410      N1417   1.439       .  S
C1411      C1412   1.397       .  A
C1411      H1416   1.084       .  S
C1412      C1413   1.406       .  A
C1413      N1414   1.432       .  S
N1414      H1418   1.046       .  S
N1414      H1419   1.044       .  S
N1417      H1420   1.042       .  S
N1417      H1421   1.046       .  S
N1422      C1423   1.361       .  A
N1422      C1598   1.457       .  S
C1424      C1425   1.363       .  A
C1424      H1427   1.083       .  S
C1425      C1426   1.376       .  A
C1425      H1428   1.082       .  S
C1426      C1615   1.458       .  S
N1429      C1433   1.363       .  A
N1429      C1430   1.377       .  A
C1430      C1431   1.383       .  A
C1431      C1432   1.347       .  A
C1431      H1434   1.083       .  S
C1432      C1433   1.377       .  A
C1432      H1435   1.083       .  S
C1433      C1573   1.462       .  S
N1436      C1440   1.358       .  A
N1436      C1437   1.370       .  A
N1436      C1556   1.460       .  S
C1437      C1438   1.391       .  A
C1437      C1465   1.503       .  S
C1438      C1439   1.356       .  A
C1439      C1440   1.371       .  A
C1439      H1442   1.083       .  S
C1440      C1542   1.456       .  S
N1443      C1448   1.349   1_556  A
N1443      C1447   1.346   1_556  A
N1443      H1475   1.044       .  S
N1445      C1450   1.362       .  A
N1445      C1449   1.363       .  A
N1445      H1476   1.042       .  S
N1446      C1453   1.351       .  A
C1447      C1455   1.392       .  A
C1448      C1464   1.392       .  A
C1448      C1456   1.380       .  A
C1449      C1457   1.386       .  A
C1449      C1466   1.432       .  A
C1450      C1465   1.431       .  A
C1450      C1458   1.383       .  A
C1451      C1459   1.387       .  A
C1452      C1460   1.382       .  A
C1453      C1461   1.385       .  A
C1453      C1464   1.413   1_556  A
C1455      C1456   1.375       .  A
C1456      H1468   1.082       .  S
C1457      C1458   1.375       .  A
C1457      H1469   1.081       .  S
C1458      H1470   1.071       .  S
C1459      H1471   1.083       .  S
C1460      H1472   1.068       .  S
C1461      C1462   1.377       .  A
C1461      H1473   1.083       .  S
C1462      H1474   1.083       .  S
C1466      C1481   1.521       .  S
N1477      C1478   1.369       .  A
N1477      C1531   1.431       .  S
C1478      C1479   1.386       .  A
C1478      C1514   1.521       .  S
C1479      H1482   1.080       .  S
C1480      C1481   1.383       .  A
C1480      H1483   1.082       .  S
O1484      C1492   1.271       .  A
O1484     Co1504   1.993       .  S
O1485      C1493   1.272       .  A
O1485     Co1505   1.921       .  S
O1486      C1494   1.274       .  A
O1486     Co1506   2.012       .  S
O1487      C1495   1.258       .  A
O1487     Co1507   1.991       .  S
O1488      C1494   1.264       .  A
O1488     Co1505   1.945       .  S
O1489      C1495   1.252       .  A
O1489     Co1504   1.966       .  S
O1490      C1493   1.302       .  A
O1490     Co1507   2.122       .  S
O1491      C1492   1.281       .  A
O1491     Co1506   2.052       .  S
C1492      C1584   1.518       .  S
C1493      C1517   1.517       .  S
C1494      C1570   1.472       .  S
C1495      C1528   1.459       .  S
O1496      C1509   1.287       .  A
O1496     Co1504   2.067       .  S
O1497      C1510   1.276       .  A
O1497     Co1505   2.058       .  S
O1498      C1511   1.252       .  A
O1498     Co1506   1.944       .  S
O1499      C1512   1.262       .  A
O1499     Co1507   1.871       .  S
O1500      C1512   1.290       .  A
O1500     Co1505   2.086       .  S
O1501      C1511   1.266       .  A
O1501     Co1504   1.990       .  S
O1502      C1509   1.270       .  A
O1502     Co1507   1.976       .  S
O1503      C1510   1.255       .  A
O1503     Co1506   1.970       .  S
Co1504     O1508   2.035       .  S
Co1505     O1508   2.011       .  S
Co1506     O1508   2.017       .  S
Co1507     O1508   2.001       .  S
C1509      C1559   1.500       .  S
C1510      C1601   1.494       .  S
C1511      C1612   1.450       .  S
C1512      C1545   1.446       .  S
C1513      C1514   1.411       .  A
C1513      C1518   1.425       .  A
C1513      H1520   1.083       .  S
C1514      C1515   1.422       .  A
C1515      C1516   1.406       .  A
C1515      N1522   1.433       .  S
C1516      C1517   1.407       .  A
C1516      H1521   1.084       .  S
C1517      C1518   1.421       .  A
C1518      N1519   1.437       .  S
N1519      H1523   1.046       .  S
N1519      H1524   1.045       .  S
N1522      H1525   1.045       .  S
N1522      H1526   1.042       .  S
C1527      C1528   1.401       .  A
C1527      H1534   1.085       .  S
C1528      C1529   1.408       .  A
C1529      N1536   1.432       .  S
C1530      C1531   1.402       .  A
C1530      H1535   1.084       .  S
C1531      C1532   1.417       .  A
C1532      N1533   1.440       .  S
N1533      H1537   1.046       .  S
N1533      H1538   1.042       .  S
N1536      H1539   1.046       .  S
C1541      C1542   1.396       .  A
C1541      C1546   1.397       .  A
C1541      H1548   1.084       .  S
C1542      C1543   1.409       .  A
C1543      C1544   1.390       .  A
C1543      N1550   1.433       .  S
C1544      C1545   1.394       .  A
C1544      H1549   1.082       .  S
C1545      C1546   1.409       .  A
C1546      N1547   1.436       .  S
N1547      H1551   1.046       .  S
N1547      H1552   1.045       .  S
N1550      H1553   1.046       .  S
N1550      H1554   1.046       .  S
C1555      C1560   1.414       .  A
C1555      H1562   1.083       .  S
C1556      C1557   1.425       .  A
C1557      N1564   1.436       .  S
C1558      C1559   1.403       .  A
C1558      H1563   1.083       .  S
C1559      C1560   1.415       .  A
C1560      N1561   1.436       .  S
N1561      H1565   1.045       .  S
N1561      H1566   1.043       .  S
N1564      H1567   1.039       .  S
N1564      H1568   1.045       .  S
C1569      C1570   1.406       .  A
C1569      C1574   1.389       .  A
C1569      H1576   1.083       .  S
C1570      C1571   1.413       .  A
C1571      C1572   1.400       .  A
C1571      N1578   1.438       .  S
C1572      C1573   1.403       .  A
C1572      H1577   1.085       .  S
C1573      C1574   1.408       .  A
C1574      N1575   1.431       .  S
N1575      H1579   1.043       .  S
N1575      H1580   1.045       .  S
N1578      H1581   1.046       .  S
N1578      H1582   1.046       .  S
C1583      C1584   1.410       .  A
C1583      C1588   1.417       .  A
C1583      H1590   1.083       .  S
C1584      C1585   1.420       .  A
C1585      C1586   1.420       .  A
C1585      N1592   1.437       .  S
C1586      C1587   1.410       .  A
C1587      C1588   1.413       .  A
C1588      N1589   1.425       .  S
N1589      H1593   1.046   1_556  S
N1589      H1594   1.046       .  S
N1592      H1595   1.045       .  S
C1597      C1598   1.411       .  A
C1597      C1602   1.408       .  A
C1597      H1604   1.084       .  S
C1598      C1599   1.410       .  A
C1599      C1600   1.418       .  A
C1599      N1606   1.435       .  S
C1600      C1601   1.409       .  A
C1600      H1605   1.081       .  S
C1601      C1602   1.416       .  A
C1602      N1603   1.439       .  S
N1603      H1607   1.046       .  S
N1603      H1608   1.043       .  S
N1606      H1610   1.046       .  S
C1611      C1612   1.397       .  A
C1611      C1616   1.386       .  A
C1611      H1618   1.085       .  S
C1612      C1613   1.418       .  A
C1613      C1614   1.393       .  A
C1613      N1620   1.439       .  S
C1614      C1615   1.397       .  A
C1614      H1619   1.084       .  S
C1615      C1616   1.406       .  A
C1616      N1617   1.432       .  S
N1617      H1621   1.046   1_556  S
N1617      H1622   1.044       .  S
N1620      H1623   1.042       .  S
N1620      H1624   1.046       .  S
