geometry optimzed in LAMMPS
_audit_creation_date              2020-11-30 
_audit_creation_method            'lammps2cif' 
_symmetry_space_group_name_H-M    'P1' 
_symmetry_Int_Tables_number       1 
_symmetry_cell_setting            triclinic 
loop_ 
_symmetry_equiv_pos_as_xyz 
  x,y,z 
_cell_length_a                    49.45769487 
_cell_length_b                    49.78569198364883 
_cell_length_c                    62.09271733025583 
_cell_angle_alpha                 90.19929441555287 
_cell_angle_beta                  89.96847878846283 
_cell_angle_gamma                 119.94025441743598 
loop_ 
_atom_site_label 
_atom_site_type_symbol 
_atom_site_fract_x 
_atom_site_fract_y 
_atom_site_fract_z 
_atom_site_charge 
O1          O  0.02865418  0.13568764  0.33025132    -0.88600
C2          C  0.09332367  0.19642937  0.28656301     0.87400
Mg3        Mg  0.02351619  0.14966013  0.36217768     1.58100
O4          O  0.11177039  0.14356774  0.31065311    -0.88300
O5          O  0.03760411  0.10215107  0.31368640    -0.75700
C6          C  0.16488691  0.22301405  0.40249532     0.92500
O7          O  0.05401370  0.20946330  0.32502350    -0.75500
O8          O  0.13884324  0.22217461  0.40307093    -0.83000
Mg9        Mg  0.02980483  0.16540939  0.30432604     1.58000
C10         C  0.20246463  0.17741039  0.33263726     0.92400
O11         O  0.00274286  0.12565509  0.28015399    -0.81300
H12         H  0.10284306  0.10029144  0.31588104    -0.06600
C13         C  0.15234210  0.23002583  0.33843244     0.87300
O14         O  0.05409463  0.13147487  0.37682100    -0.75800
O15         O  0.07404864  0.17107480  0.29408870    -0.88500
O16         O  0.18758875  0.17534259  0.31553331    -0.81300
C17         C  0.13774293  0.15489378  0.25753571     0.92500
C18         C  0.01061999  0.11565340  0.26378475     0.92400
Mg19       Mg  0.14672004  0.17399280  0.36177817     1.58000
O20         O  0.17348083  0.21416785  0.38584147    -0.81300
O21         O  0.12284680  0.12968335  0.34114868    -0.75500
O22         O  0.10900105  0.14701788  0.25901308    -0.81300
O23         O  0.48333767  0.15954645  0.31474397    -0.83100
O24         O  0.06716540  0.18735306  0.40671101    -0.81400
C25         C  0.11226798  0.12359886  0.32207571     0.86800
O26         O  0.10230618  0.16760049  0.37146058    -0.88500
O27         O  0.14713167  0.20321538  0.33591849    -0.88600
O28         O  0.13763729  0.23658305  0.35235058    -0.75700
Mg29       Mg  0.07456835  0.12881012  0.28765150     1.58000
O30         O  0.15705644  0.17046696  0.27225730    -0.83100
H31         H  0.00567502  0.09061200  0.33758423    -0.06800
O32         O  0.06357975  0.19466159  0.35569039    -0.88300
H33         H  0.07326980  0.23821323  0.35067416    -0.06600
H34         H  0.09146691  0.12846491  0.38710864    -0.06800
C35         C  0.06372143  0.21498168  0.34430363     0.86800
C36         C  0.02299809  0.10879838  0.32757865     0.87400
C37         C  0.08321701  0.14214410  0.37891891     0.87400
H38         H  0.16937078  0.24821568  0.32827869    -0.06800
O39         O  0.12239519  0.20716800  0.28905612    -0.75800
Mg40       Mg  0.10095608  0.20901189  0.37847499     1.58000
H41         H  0.08526080  0.21003996  0.27806816    -0.06800
C42         C  0.47240709  0.15992374  0.33324366     0.92400
O43         O  0.01900690  0.16784772  0.39456945    -0.83000
C44         C  0.03934951  0.18182295  0.40914430     0.92500
O45         O  0.03635022  0.11570917  0.26323121    -0.83000
Mg46       Mg  0.15200474  0.18837905  0.30423660     1.58200
O47         O  0.98585196  0.16017797  0.35103010    -0.81300
O48         O  0.19321590  0.18025356  0.35115704    -0.83000
C49         C  0.17386397  0.10341302  0.18669983     0.02000
C50         C  0.17519682  0.07559214  0.18732772     0.02000
C51         C  0.18576032  0.06657152  0.16914634    -0.18500
C52         C  0.19457191  0.08445914  0.15040029     0.02000
C53         C  0.19332206  0.11216051  0.14993615     0.02000
C54         C  0.18336944  0.12148031  0.16804505    -0.18500
H55         H  0.18293915  0.14304327  0.16756852     0.04000
H56         H  0.18645800  0.04515070  0.16943083     0.04000
C57         C  0.44331174  0.08439626  0.18231188     0.02000
C58         C  0.41531975  0.05570448  0.18116730     0.02000
C59         C  0.39834768  0.04695210  0.16187901    -0.18500
C60         C  0.40828413  0.06658658  0.14377611     0.02000
C61         C  0.43557174  0.09632839  0.14542870     0.02000
C62         C  0.45298388  0.10448255  0.16463750    -0.18500
H63         H  0.47406962  0.12687272  0.16596057     0.04000
H64         H  0.37688195  0.02484158  0.16104867     0.04000
O65         O  0.14350770  0.44980462  0.33725264    -0.88600
C66         C  0.07034178  0.42492538  0.37880885     0.87400
Mg67       Mg  0.14826074  0.47343778  0.30746123     1.58100
O68         O  0.06735454  0.36249912  0.34959001    -0.88300
O69         O  0.14136511  0.40748897  0.34921747    -0.75700
C70         C  0.00955769  0.38977805  0.25929539     0.92500
O71         O  0.10452106  0.48506049  0.34535212    -0.75500
O72         O  0.03227392  0.41765902  0.25985264    -0.83000
Mg73       Mg  0.13347352  0.46942342  0.36521061     1.58000
C74         C  0.48163742  0.30068906  0.31928948     0.92400
O75         O  0.16320018  0.45935694  0.38788205    -0.81300
H76         H  0.08575301  0.33606362  0.34162067    -0.06600
C77         C  0.01590621  0.39877720  0.32392210     0.87300
O78         O  0.12759103  0.42768973  0.28819344    -0.75800
O79         O  0.09327047  0.42480609  0.37111400    -0.88500
O80         O  0.99317511  0.31075914  0.33891272    -0.81300
C81         C  0.03730775  0.33967395  0.40304031     0.92500
C82         C  0.16011762  0.43922866  0.40162637     0.92400
Mg83       Mg  0.03635756  0.36121914  0.29706418     1.58000
O84         O  0.00622468  0.37066638  0.27399597    -0.81300
O85         O  0.06499141  0.34528613  0.31680456    -0.75500
O86         O  0.06567956  0.36095062  0.40079666    -0.81300
O87         O  0.17763858  0.01786229  0.35961783    -0.83100
O88         O  0.10561795  0.47014374  0.26112762    -0.81400
C89         C  0.07292090  0.34722712  0.33643428     0.86800
O90         O  0.07693328  0.40572007  0.29067490    -0.88500
O91         O  0.02688055  0.38133081  0.32513832    -0.88600
O92         O  0.02790743  0.42242070  0.31177626    -0.75700
Mg93       Mg  0.10179274  0.38637287  0.37414659     1.58000
O94         O  0.01745716  0.33292842  0.38786919    -0.83100
H95         H  0.17365882  0.43646897  0.32776225    -0.06800
O96         O  0.10224261  0.46804158  0.31250305    -0.88300
H97         H  0.08310429  0.49375239  0.32067095    -0.06600
H98         H  0.09760800  0.38721990  0.27324911    -0.06800
C99         C  0.09630361  0.48292820  0.32575781     0.86800
C100        C  0.15390670  0.43182123  0.33777292     0.87400
C101        C  0.10034843  0.40605810  0.28345915     0.87400
H102        H  0.99595023  0.39412215  0.33370599    -0.06800
O103        O  0.04285152  0.40362793  0.37444188    -0.75800
Mg104      Mg  0.06813839  0.44382063  0.28714930     1.58000
H105        H  0.07374627  0.44398940  0.38903563    -0.06800
C106        C  0.18990769  0.03269248  0.34240767     0.92400
O107        O  0.15268693  0.49840780  0.27604378    -0.83000
C108        C  0.13398287  0.49208058  0.26026569     0.92500
O109        O  0.13770176  0.41139815  0.40052323    -0.83000
Mg110      Mg  0.02203384  0.35796387  0.35549643     1.58200
O111        O  0.17907896  0.02139124  0.32380524    -0.81300
O112        O  0.49326828  0.31556811  0.30199516    -0.83000
O113        O  0.31242432  0.35896211  0.34280319    -0.88600
C114        C  0.36886804  0.43589951  0.37989354     0.87400
Mg115      Mg  0.32676868  0.35316121  0.31148287     1.58100
O116        O  0.30602545  0.43825383  0.35528406    -0.88300
O117        O  0.27514959  0.36466295  0.35720226    -0.75700
C118        C  0.37941148  0.48728862  0.26150944     0.92500
O119        O  0.38890904  0.39555019  0.34529463    -0.75500
O120        O  0.38406500  0.46455840  0.26351496    -0.83000
Mg121      Mg  0.34719203  0.37050352  0.36800813     1.58000
C122        C  0.32531222  0.02328155  0.32490914     0.92400
O123        O  0.31192171  0.34471302  0.39419840    -0.81300
H124        H  0.26026415  0.42198967  0.35157177    -0.06600
C125        C  0.38987665  0.48657922  0.32628310     0.87300
O126        O  0.30013095  0.37471245  0.29519634    -0.75800
O127        O  0.34503385  0.41237600  0.37370696    -0.88500
O128        O  0.32435378  0.51121791  0.34419743    -0.81300
C129        C  0.31800992  0.46888817  0.40815161     0.92500
C130        C  0.29688213  0.34974918  0.40871888     0.92400
Mg131      Mg  0.32847016  0.46706482  0.30221458     1.58000
O132        O  0.36476270  0.49334084  0.27582342    -0.81300
O133        O  0.28621493  0.44146588  0.32475153    -0.75500
O134        O  0.31846178  0.44366698  0.40654848    -0.81300
O135        O  0.34834272  0.32561663  0.36181575    -0.83100
O136        O  0.35740078  0.39386772  0.26466321    -0.81400
C137        C  0.28322333  0.43352389  0.34437849     0.86800
O138        O  0.32991787  0.42512001  0.29666039    -0.88500
O139        O  0.36193378  0.47839154  0.32826435    -0.88600
O140        O  0.39897239  0.47182100  0.31436464    -0.75700
Mg141      Mg  0.29928683  0.40585820  0.38054657     1.58000
O142        O  0.32613634  0.48762958  0.39234319    -0.83100
H143        H  0.26733873  0.32987133  0.33650807    -0.06800
O144        O  0.36767879  0.39812951  0.31535120    -0.88300
H145        H  0.41343058  0.41356691  0.31776750    -0.06600
H146        H  0.28806627  0.40475548  0.28239230    -0.06800
C147        C  0.39090393  0.40263241  0.32558435     0.86800
C148        C  0.28439381  0.35003558  0.34530214     0.87400
C149        C  0.30549810  0.40188855  0.29093519     0.87400
H150        H  0.40696358  0.50628104  0.33544127    -0.06800
O151        O  0.37320716  0.46290519  0.37621282    -0.75800
Mg152      Mg  0.37537686  0.43099492  0.29054619     1.58000
H153        H  0.38649152  0.43348317  0.38855047    -0.06800
C154        C  0.34896266  0.31314602  0.34402957     0.92400
O155        O  0.34423953  0.34801984  0.27866814    -0.83000
C156        C  0.35384271  0.36684706  0.26294505     0.92500
O157        O  0.29141020  0.37204566  0.40741994    -0.83000
Mg158      Mg  0.34580930  0.48356494  0.35948855     1.58200
O159        O  0.34657182  0.32377134  0.32588961    -0.81300
O160        O  0.32751043  0.01109860  0.30751948    -0.83000
C161        C  0.43158425  0.34862452  0.18193070     0.02000
C162        C  0.40197458  0.34629763  0.18357564     0.02000
C163        C  0.38247743  0.33768368  0.16558371    -0.18500
C164        C  0.39112629  0.33003835  0.14616867     0.02000
C165        C  0.41934779  0.32956016  0.14468880     0.02000
C166        C  0.43977078  0.33954298  0.16255821    -0.18500
H167        H  0.46188430  0.34004873  0.16143732     0.04000
H168        H  0.36006098  0.33660061  0.16675157     0.04000
O169        O  0.21715561  0.02521665  0.00630692    -0.88600
C170        C  0.24271753  0.47707482  0.04717130     0.87400
Mg171      Mg  0.18938278  0.00489798  0.97787695     1.58100
O172        O  0.30384272  0.03186130  0.01497780    -0.88300
O173        O  0.26183307  0.06425753  0.01693966    -0.75700
C174        C  0.26163800  0.43983153  0.92946279     0.92500
O175        O  0.17801632  0.45315017  0.01697165    -0.75500
O176        O  0.23503117  0.43779539  0.93045612    -0.83000
Mg177      Mg  0.20009084  0.50004697  0.03475250     1.58000
C178        C  0.36060239  0.00225541  0.98325752     0.92400
O179        O  0.21558818  0.04339163  0.05571843    -0.81300
H180        H  0.33131981  0.07532415  0.00478383    -0.06600
C181        C  0.25935455  0.44221238  0.99390907     0.87300
O182        O  0.23334338  0.02560360  0.95664871    -0.75800
O183        O  0.24352623  0.49993403  0.03885674    -0.88500
O184        O  0.35256920  0.00604349  0.00207826    -0.81300
C185        C  0.33021771  0.02468378  0.06736198     0.92500
C186        C  0.23538015  0.05459698  0.07095523     0.92400
Mg187      Mg  0.29631019  0.99535151  0.96393243     1.58000
O188        O  0.28050325  0.45038513  0.94521321    -0.81300
O189        O  0.31790894  0.04266830  0.98124023    -0.75500
O190        O  0.30896291  0.03201979  0.06640592    -0.81300
O191        O  0.15456150  0.50060128  0.03081939    -0.83100
O192        O  0.18745301  0.46164990  0.93208005    -0.81400
C193        C  0.31840551  0.05095207  0.00070217     0.86800
O194        O  0.25252602  0.99482622  0.96022346    -0.88500
O195        O  0.27926644  0.47005707  0.99333399    -0.88600
O196        O  0.23428947  0.43115927  0.98295273    -0.75700
Mg197      Mg  0.28351070  0.04484876  0.04096445     1.58000
O198        O  0.33629754  0.01248779  0.05137962    -0.83100
H199        H  0.23247528  0.06854881  0.99617311    -0.06800
O200        O  0.19278769  0.46403978  0.98341040    -0.88300
H201        H  0.16393250  0.42070895  0.99325166    -0.06600
H202        H  0.27192572  0.03167742  0.94080434    -0.06800
C203        C  0.17746655  0.44498805  0.99749626     0.86800
C204        C  0.23667893  0.05318703  0.00608331     0.87400
C205        C  0.25340833  0.01774363  0.95196584     0.87400
H206        H  0.26313117  0.42694927  0.00423931    -0.06800
O207        O  0.26315002  0.46956698  0.04275194    -0.75800
Mg208      Mg  0.21306096  0.45001613  0.95815031     1.58000
H209        H  0.22412220  0.46303285  0.05825282    -0.06800
C210        C  0.13755238  0.49557572  0.01429222     0.92400
O211        O  0.16243134  0.48433883  0.94600836    -0.83000
C212        C  0.16692904  0.46993130  0.93062823     0.92500
O213        O  0.26191660  0.05656472  0.06929415    -0.83000
Mg214      Mg  0.30728822  0.49053112  0.02144282     1.58200
O215        O  0.14595738  0.49221902  0.99549396    -0.81300
O216        O  0.34265852  0.99581780  0.96708816    -0.83000
O217        O  0.27838097  0.30923244  0.99325603    -0.88600
C218        C  0.27421025  0.23831825  0.95627193     0.87400
Mg219      Mg  0.29558671  0.31500077  0.02562746     1.58100
O220        O  0.20198770  0.22367520  0.97650854    -0.88300
O221        O  0.23481112  0.29716766  0.97645554    -0.75700
C222        C  0.22385783  0.17773640  0.06998505     0.92500
O223        O  0.32707203  0.28217957  0.99281901    -0.75500
O224        O  0.24983736  0.20261808  0.06919998    -0.83000
Mg225      Mg  0.30775406  0.30384105  0.96940093     1.58000
C226        C  0.13944502  0.13590662  0.00066838     0.92400
O227        O  0.29654098  0.32768159  0.94196280    -0.81300
H228        H  0.16750160  0.23362144  0.97713766    -0.06600
C229        C  0.24326282  0.18315464  0.00779023     0.87300
O230        O  0.24561870  0.28696359  0.03916487    -0.75800
O231        O  0.26874520  0.25911452  0.96154054    -0.87900
O232        O  0.15396699  0.14817995  0.98332101    -0.81300
C233        C  0.19209274  0.19593986  0.92439758     0.92500
C234        C  0.27692358  0.31928484  0.92655612     0.92400
Mg235      Mg  0.19213986  0.19356137  0.02829882     1.58000
O236        O  0.20346011  0.16958303  0.05517053    -0.81300
O237        O  0.17343869  0.21580878  0.00491157    -0.75500
O238        O  0.21645689  0.22230728  0.92630310    -0.81300
O239        O  0.34866328  0.35045166  0.97885790    -0.83100
O240        O  0.28382955  0.27367539  0.07144028    -0.81400
C241        C  0.18030688  0.22454637  0.98559868     0.86800
O242        O  0.23151540  0.23789644  0.03607386    -0.88500
O243        O  0.22116229  0.18765323  0.00458018    -0.88600
O244        O  0.26551857  0.20024022  0.02043178    -0.75700
Mg245      Mg  0.22643123  0.25831462  0.95257652     1.58000
O246        O  0.18338155  0.17658963  0.93967192    -0.83100
H247        H  0.25510540  0.33190053  0.99848575    -0.06800
O248        O  0.29821378  0.27373726  0.02108774    -0.88300
H249        H  0.33335608  0.26474803  0.02066067    -0.06600
H250        H  0.20371092  0.25192893  0.04921784    -0.06800
C251        C  0.32023847  0.27340488  0.01211868     0.86800
C252        C  0.25644109  0.31384249  0.98965659     0.87400
C253        C  0.22596888  0.25842014  0.04188733     0.87400
H254        H  0.24432034  0.16499321  0.99889636    -0.06800
O255        O  0.25433466  0.20984013  0.95916161    -0.75800
Mg256      Mg  0.27400217  0.23866708  0.04453322     1.58000
H257        H  0.29656224  0.24450255  0.94922961    -0.06800
C258        C  0.35945761  0.36170203  0.99739645     0.92400
O259        O  0.31655268  0.32000104  0.05868342    -0.83000
C260        C  0.30782658  0.30021201  0.07372592     0.92500
O261        O  0.25110751  0.29410043  0.92714768    -0.83000
Mg262      Mg  0.20407406  0.18193678  0.97247503     1.58200
O263        O  0.34521999  0.34908487  0.01473837    -0.81300
O264        O  0.15044162  0.14720483  0.01915532    -0.83000
O265        O  0.02809363  0.21895146  0.99680941    -0.88600
C266        C  0.46723616  0.22577949  0.95175422     0.87400
Mg267      Mg  0.01410921  0.20202785  0.02943118     1.58100
O268        O  0.02753918  0.29641508  0.97612051    -0.88300
O269        O  0.06434887  0.25867338  0.97946441    -0.75700
C270        C  0.44716362  0.28036387  0.06775225     0.92500
O271        O  0.45216518  0.17579663  0.99143605    -0.75500
O272        O  0.44412496  0.25337164  0.06882845    -0.83000
Mg273      Mg  0.49519497  0.19097871  0.96989547     1.58000
C274        C  0.99976123  0.35889730  0.99772411     0.92400
O275        O  0.03396877  0.19810091  0.94539273    -0.81300
H276        H  0.07235468  0.32675079  0.98222598    -0.06600
C277        C  0.43930116  0.25831546  0.00418242     0.87300
O278        O  0.03606732  0.25103770  0.04354813    -0.75800
O279        O  0.49274931  0.23040865  0.95834031    -0.88500
O280        O  0.99852346  0.34434034  0.98060612    -0.81300
C281        C  0.01575382  0.31021281  0.92237901     0.92500
C282        C  0.04752687  0.21640100  0.92958021     0.92400
Mg283      Mg  0.99992289  0.30539924  0.02834884     1.58000
O284        O  0.46065143  0.29813485  0.05173888    -0.81300
O285        O  0.04322077  0.32005872  0.00721425    -0.75500
O286        O  0.02379108  0.28968272  0.92456814    -0.81300
O287        O  0.49789343  0.14952232  0.98223378    -0.83100
O288        O  0.47012731  0.20555451  0.07386316    -0.81400
C289        C  0.04859143  0.31506411  0.98804814     0.86800
O290        O  0.00133109  0.26544889  0.03978979    -0.88500
O291        O  0.46705585  0.27751711  0.00126223    -0.88600
O292        O  0.43091102  0.23748833  0.01846139    -0.75700
Mg293      Mg  0.03960240  0.27116829  0.95325700     1.58000
O294        O  0.00101867  0.31532084  0.93712701    -0.83100
H295        H  0.07336479  0.23708954  0.00377768    -0.06800
O296        O  0.46780502  0.19982574  0.02240784    -0.88300
H297        H  0.42314697  0.16865974  0.01658203    -0.06600
H298        H  0.04186784  0.29183062  0.05491927    -0.06800
C299        C  0.44683436  0.18075835  0.01062095     0.86800
C300        C  0.05589338  0.23786728  0.99376353     0.87400
C301        C  0.02674664  0.27025647  0.04668947     0.87400
H302        H  0.42180537  0.25883500  0.99404130    -0.06800
O303        O  0.45845142  0.24546839  0.95476921    -0.75800
Mg304      Mg  0.45527059  0.22504131  0.04497397     1.58000
H305        H  0.45168863  0.20411630  0.94377342    -0.06800
C306        C  0.49787487  0.13910908  0.00093415     0.92400
O307        O  0.49623883  0.18300133  0.06154367    -0.83000
C308        C  0.48074028  0.18701229  0.07631575     0.92500
O309        O  0.05074265  0.24344376  0.92897929    -0.83000
Mg310      Mg  0.48106605  0.29470677  0.96887472     1.58200
O311        O  0.49870817  0.15349752  0.01803466    -0.81300
O312        O  0.99892255  0.34800811  0.01638892    -0.83000
O313        O  0.13161756  0.02184631  0.66919543    -0.88600
C314        C  0.19445220  0.08834489  0.71026553     0.87400
Mg315      Mg  0.14633248  0.01749046  0.63712238     1.58100
O316        O  0.13921928  0.10429094  0.68734023    -0.88300
O317        O  0.09788680  0.03121302  0.68537869    -0.75700
C318        C  0.21460327  0.15635857  0.59490215     0.92500
O319        O  0.20563237  0.04775461  0.67295914    -0.75500
O320        O  0.21491039  0.13105920  0.59482776    -0.83000
Mg321      Mg  0.16219064  0.02379848  0.69473435     1.58000
C322        C  0.16823771  0.19363459  0.66561718     0.92400
O323        O  0.12416313  0.99801771  0.72124765    -0.81300
H324        H  0.09501836  0.09446651  0.68379079    -0.06600
C325        C  0.22433115  0.14693552  0.65873653     0.87300
O326        O  0.12496589  0.04555267  0.62289230    -0.75800
O327        O  0.16842766  0.06807345  0.70396269    -0.88500
O328        O  0.16566127  0.17834939  0.68256474    -0.81300
C329        C  0.15399197  0.12990164  0.74094370     0.92500
C330        C  0.11314587  0.00676867  0.73667675     0.92400
Mg331      Mg  0.16612141  0.13869469  0.63627868     1.58000
O332        O  0.20454087  0.16472370  0.61102933    -0.81300
O333        O  0.12267002  0.11473618  0.65780606    -0.75500
O334        O  0.14945395  0.10265470  0.73841897    -0.81300
O335        O  0.15590113  0.47739854  0.68317634    -0.83100
O336        O  0.18172193  0.06031625  0.59146028    -0.81400
C337        C  0.11804458  0.10420853  0.67682319     0.86800
O338        O  0.16038627  0.09445418  0.62675629    -0.88500
O339        O  0.19720262  0.14110344  0.66150899    -0.88600
O340        O  0.23093746  0.13204452  0.64507827    -0.75700
Mg341      Mg  0.12627238  0.06863306  0.71077152     1.58000
O342        O  0.16563566  0.14965654  0.72597925    -0.83100
H343        H  0.08615538  0.99875287  0.66188333    -0.06800
O344        O  0.19013602  0.05860709  0.64304256    -0.88300
H345        H  0.23421754  0.06846775  0.64743824    -0.06600
H346        H  0.11938425  0.08110267  0.61240127    -0.06800
C347        C  0.21094504  0.05863598  0.65400100     0.86800
C348        C  0.10452101  0.01626254  0.67177676     0.87400
C349        C  0.13449368  0.07422934  0.62023278     0.87400
H350        H  0.24275319  0.16460285  0.66850898    -0.06800
O351        O  0.20400352  0.11701926  0.70749685    -0.75800
Mg352      Mg  0.20293449  0.09447247  0.61965901     1.58000
H353        H  0.20964798  0.08151412  0.71801808    -0.06800
C354        C  0.16019900  0.46893518  0.66472414     0.92400
O355        O  0.16284209  0.01272910  0.60387696    -0.83000
C356        C  0.17486063  0.03228126  0.58873398     0.92500
O357        O  0.11313837  0.03216719  0.73577336    -0.83000
Mg358      Mg  0.18282128  0.14539872  0.69338804     1.58200
O359        O  0.16397566  0.98510366  0.64839493    -0.81300
O360        O  0.17250852  0.18524851  0.64712348    -0.83000
C361        C  0.10717054  0.16733348  0.85319182     0.02000
C362        C  0.07951782  0.16905212  0.85340344     0.02000
C363        C  0.06083599  0.16050623  0.83460713    -0.18500
C364        C  0.06997611  0.15111097  0.81574000     0.02000
C365        C  0.09810359  0.15031491  0.81596207     0.02000
C366        C  0.11603991  0.15804489  0.83461501    -0.18500
H367        H  0.13768179  0.15743711  0.83454555     0.04000
H368        H  0.03941562  0.16144222  0.83459482     0.04000
C369        C  0.06044523  0.39999531  0.85281504     0.02000
C370        C  0.08962062  0.42801665  0.85329865     0.02000
C371        C  0.09939442  0.44721410  0.83497044    -0.18500
C372        C  0.08091478  0.43890708  0.81632263     0.02000
C373        C  0.05152355  0.41162941  0.81625896     0.02000
C374        C  0.04169321  0.39233916  0.83429997    -0.18500
H375        H  0.01942539  0.37096666  0.83380840     0.04000
H376        H  0.12146321  0.46877763  0.83520278     0.04000
O377        O  0.47276880  0.11230706  0.67023692    -0.88600
C378        C  0.40794592  0.10498447  0.71392179     0.87400
Mg379      Mg  0.47451931  0.13121542  0.63854937     1.58100
O380        O  0.39457361  0.03554653  0.68929074    -0.88300
O381        O  0.46867101  0.07141011  0.68598418    -0.75700
C382        C  0.33113250  0.05719338  0.59924487     0.92500
O383        O  0.44465232  0.15746119  0.67657206    -0.75500
O384        O  0.35544810  0.08391555  0.59911140    -0.83000
Mg385      Mg  0.47197966  0.13996551  0.69673510     1.58000
C386        C  0.30347257  0.47216518  0.66846049     0.92400
O387        O  0.50134254  0.12987188  0.72151386    -0.81300
H388        H  0.40752839  0.00433127  0.68240665    -0.06600
C389        C  0.34547776  0.07414267  0.66318597     0.87300
O390        O  0.44722127  0.08253648  0.62367793    -0.75800
O391        O  0.42911374  0.10058335  0.70754142    -0.88500
O392        O  0.31917924  0.48489557  0.68538629    -0.81300
C393        C  0.36906641  0.02120205  0.74349934     0.92500
C394        C  0.49530777  0.11070936  0.73692266     0.92400
Mg395      Mg  0.35575012  0.02780428  0.63828625     1.58000
O396        O  0.32595054  0.03788990  0.61438513    -0.81300
O397        O  0.38398384  0.01132711  0.65832024    -0.75500
O398        O  0.39791061  0.04104756  0.74128935    -0.81300
O399        O  0.01664145  0.17990389  0.68438176    -0.83100
O400        O  0.42782739  0.12746947  0.59424770    -0.81400
C401        C  0.39574265  0.01649550  0.67710418     0.86800
O402        O  0.39777330  0.06772311  0.62758800    -0.88500
O403        O  0.35394708  0.05475706  0.66472680    -0.88600
O404        O  0.35813131  0.09622263  0.64984027    -0.75700
Mg405      Mg  0.43174899  0.05894792  0.71248114     1.58000
O406        O  0.34966351  0.01580190  0.72851757    -0.83100
H407        H  0.49894983  0.09381755  0.66157640    -0.06800
O408        O  0.43249237  0.13233530  0.64596983    -0.88300
H409        H  0.42119838  0.16483974  0.65259963    -0.06600
H410        H  0.41212767  0.04189747  0.61200366    -0.06800
C411        C  0.43236961  0.15210613  0.65795308     0.86800
C412        C  0.48111074  0.09286787  0.67214089     0.87400
C413        C  0.41855057  0.06324842  0.62050775     0.87400
H414        H  0.32750587  0.07275036  0.67381886    -0.06800
O415        O  0.37936829  0.08528383  0.71065007    -0.75800
Mg416      Mg  0.39470477  0.10919667  0.62319407     1.58000
H417        H  0.41392663  0.12652272  0.72200176    -0.06800
C418        C  0.02419063  0.19182391  0.66567455     0.92400
O419        O  0.47669552  0.15209918  0.60600485    -0.83000
C420        C  0.45662902  0.14697806  0.59149455     0.92500
O421        O  0.47049509  0.08436889  0.73692572    -0.83000
Mg422      Mg  0.35219145  0.03614246  0.69615452     1.58200
O423        O  0.50737655  0.18114700  0.64957613    -0.81300
O424        O  0.31126737  0.48492047  0.65005081    -0.83000
O425        O  0.35624104  0.30468291  0.66077433    -0.88600
C426        C  0.42755412  0.35206995  0.61841212     0.87400
Mg427      Mg  0.34981562  0.32705337  0.68827377     1.58100
O428        O  0.43498397  0.29714055  0.64982829    -0.88300
O429        O  0.36082480  0.26511664  0.65011524    -0.75700
C430        C  0.48517311  0.38937390  0.73609813     0.92500
O431        O  0.38775396  0.37650784  0.64713127    -0.75500
O432        O  0.46152938  0.39273563  0.73393872    -0.83000
Mg433      Mg  0.36168051  0.32803331  0.63109553     1.58000
C434        C  0.02181786  0.32673269  0.68054074     0.92400
O435        O  0.33353751  0.28163124  0.61409071    -0.81300
H436        H  0.41958707  0.25380820  0.65996986    -0.06600
C437        C  0.48225190  0.38731366  0.67112761     0.87300
O438        O  0.37211376  0.30567871  0.70989873    -0.75800
O439        O  0.40546583  0.32894587  0.62657892    -0.88500
O440        O  0.50944034  0.32220803  0.66178047    -0.81300
C441        C  0.46582898  0.30390651  0.59642459     0.92500
C442        C  0.34161901  0.27382814  0.59692064     0.92400
Mg443      Mg  0.46534120  0.33375721  0.70092389     1.58000
O444        O  0.49331127  0.37703522  0.72140906    -0.81300
O445        O  0.43934948  0.28663399  0.68336675    -0.75500
O446        O  0.43727921  0.29620204  0.59855330    -0.81300
O447        O  0.31514356  0.32577543  0.63569765    -0.83100
O448        O  0.39119262  0.36993071  0.73199245    -0.81400
C449        C  0.43101241  0.27818641  0.66401669     0.86800
O450        O  0.42230611  0.33477405  0.70515447    -0.88500
O451        O  0.47301383  0.35923366  0.67160536    -0.88600
O452        O  0.46870060  0.39903824  0.68178263    -0.75700
Mg453      Mg  0.40052631  0.28375396  0.62470680     1.58000
O454        O  0.48523465  0.31646759  0.61188261    -0.83100
H455        H  0.32909806  0.26191391  0.67231510    -0.06800
O456        O  0.39417611  0.36707654  0.68056640    -0.88300
H457        H  0.40889949  0.41011347  0.66994450    -0.06600
H458        H  0.40432714  0.29864115  0.72526025    -0.06800
C459        C  0.39739460  0.38562778  0.66622832     0.86800
C460        C  0.34782896  0.27675947  0.66157043     0.87400
C461        C  0.40002102  0.31259206  0.71398823     0.87400
H462        H  0.50195823  0.40216564  0.66108249    -0.06800
O463        O  0.45561323  0.35963363  0.62261134    -0.75800
Mg464      Mg  0.42807466  0.38067839  0.70604832     1.58000
H465        H  0.42292301  0.36638335  0.60770281    -0.06800
C466        C  0.30608582  0.33568292  0.65130204     0.92400
O467        O  0.34386547  0.35081168  0.71797750    -0.83000
C468        C  0.36302941  0.36389689  0.73340343     0.92500
O469        O  0.36647207  0.27230064  0.59668686    -0.83000
Mg470      Mg  0.47914602  0.33831855  0.64303251     1.58200
O471        O  0.32144780  0.34468494  0.66889978    -0.81300
O472        O  0.01182028  0.33485709  0.69670404    -0.83000
C473        C  0.31151825  0.39188371  0.84874832     0.02000
C474        C  0.30836059  0.41842327  0.84994933     0.02000
C475        C  0.31713165  0.43864746  0.83249990    -0.18500
C476        C  0.32867472  0.43260092  0.81358621     0.02000
C477        C  0.33059921  0.40519185  0.81192176     0.02000
C478        C  0.32188929  0.38506761  0.82962944    -0.18500
H479        H  0.32293824  0.36387251  0.82851043     0.04000
H480        H  0.31537917  0.45945893  0.83376256     0.04000
C481        C  0.00827720  0.23612961  0.48084595     0.02000
C482        C  0.00767693  0.26428024  0.48062797     0.02000
C483        C  0.00150205  0.27505656  0.49995517    -0.18500
C484        C  0.49545355  0.25904472  0.51836063     0.02000
C485        C  0.49315211  0.22952367  0.51818263     0.02000
C486        C  0.00151106  0.21903484  0.49990651    -0.18500
H487        H  0.00110922  0.19703915  0.49981600     0.04000
H488        H  0.00177920  0.29696941  0.50005650     0.04000
C489        C  0.23387570  0.24296976  0.48167550     0.02000
C490        C  0.26298102  0.27061716  0.48312620     0.02000
C491        C  0.28220514  0.27601368  0.50105259    -0.18500
C492        C  0.27239005  0.25453993  0.51780683     0.02000
C493        C  0.24282665  0.22750988  0.51681860     0.02000
C494        C  0.22383447  0.22161812  0.49863680    -0.18500
H495        H  0.20133281  0.20058505  0.49773382     0.04000
H496        H  0.30462528  0.29713832  0.50209299     0.04000
C497        C  0.23178847  0.48632209  0.47993232     0.02000
C498        C  0.26350138  0.49477611  0.48256448     0.02000
C499        C  0.27832751  0.50727072  0.50233531    -0.18500
C500        C  0.26282703  0.01474001  0.51906721     0.02000
C501        C  0.23145937  0.00693213  0.51581367     0.02000
C502        C  0.21607231  0.49181484  0.49668986    -0.18500
H503        H  0.19213472  0.48638908  0.49437105     0.04000
H504        H  0.30228629  0.51281112  0.50468659     0.04000
O505        O  0.04162926  0.48495508  0.98918788    -0.88600
C506        C  0.46863228  0.44453278  0.03078256     0.87400
Mg507      Mg  0.07501243  0.03145781  0.99268423     1.58100
O508        O  0.44988516  0.46242689  0.97986211    -0.88300
O509        O  0.50791399  0.45510959  0.96444360    -0.75700
C510        C  0.99868605  0.10894004  0.00395536     0.92500
O511        O  0.04457139  0.50090106  0.03999847    -0.75500
O512        O  0.02299466  0.10937895  0.01117941    -0.83000
Mg513      Mg  0.03263297  0.45847403  0.01868065     1.58000
C514        C  0.39135359  0.50323477  0.98185588     0.92400
O515        O  0.02246157  0.41231823  0.00420516    -0.81300
H516        H  0.44453613  0.45665043  0.94795613    -0.06600
C517        C  0.46325811  0.02475386  0.02683247     0.87300
O518        O  0.05035426  0.04582599  0.96753921    -0.75800
O519        O  0.48324947  0.44647933  0.01417817    -0.88500
O520        O  0.39185762  0.47811871  0.98470233    -0.81300
C521        C  0.38832440  0.39133164  0.99873170     0.92500
C522        C  0.99975272  0.38819356  0.99609019     0.92400
Mg523      Mg  0.46643624  0.04100675  0.97930700     1.58000
O524        O  0.47584336  0.08596645  0.99483531    -0.81300
O525        O  0.45533053  0.99921237  0.95755778    -0.75500
O526        O  0.41402206  0.39198205  0.99559532    -0.81300
O527        O  0.08302617  0.47018399  0.01925655    -0.83100
O528        O  0.08455759  0.10615830  0.00241223    -0.81400
C529        C  0.44964460  0.47198778  0.96160948     0.86800
O530        O  0.01441201  0.05140811  0.98414980    -0.88500
O531        O  0.45717699  0.01420807  0.00836650    -0.88600
O532        O  0.99009977  0.04312702  0.03379177    -0.75700
Mg533      Mg  0.46232561  0.42664153  0.98287576     1.58000
O534        O  0.38651976  0.41564491  0.00174703    -0.83100
H535        H  0.05383583  0.48287920  0.95880183    -0.06800
O536        O  0.04811467  0.03564026  0.01862143    -0.88300
H537        H  0.05321660  0.04154898  0.05052590    -0.06600
H538        H  0.02300355  0.05991371  0.95271118    -0.06800
C539        C  0.04811890  0.02612556  0.03692586     0.86800
C540        C  0.03560467  0.47406509  0.97082228     0.87400
C541        C  0.02902147  0.05297553  0.96761098     0.87400
H542        H  0.44503613  0.01575481  0.03885844    -0.06800
O543        O  0.44732338  0.45167533  0.03108537    -0.75800
Mg544      Mg  0.03578126  0.07154910  0.01527131     1.58000
H545        H  0.47471958  0.43737897  0.04555979    -0.06800
C546        C  0.10799800  0.49561292  0.01601729     0.92400
O547        O  0.11159133  0.08187482  0.99672187    -0.83000
C548        C  0.11016705  0.10645065  0.99944896     0.92500
O549        O  0.47492393  0.38871526  0.98662695    -0.83000
Mg550      Mg  0.42283794  0.46604298  0.00595646     1.58200
O551        O  0.10589898  0.01889422  0.01386509    -0.81300
O552        O  0.41557415  0.02904621  0.97892330    -0.83000
O553        O  0.37110596  0.14994006  0.31515733    -0.88600
C554        C  0.30946838  0.11137924  0.36589179     0.87400
Mg555      Mg  0.40915704  0.19715162  0.31394626     1.58100
O556        O  0.28084514  0.13022825  0.31951446    -0.88300
O557        O  0.33117233  0.11709073  0.29604958    -0.75700
C558        C  0.34908597  0.28363641  0.34373978     0.92500
O559        O  0.38595551  0.16723666  0.36554528    -0.75500
O560        O  0.37467002  0.28356418  0.34528386    -0.83000
Mg561      Mg  0.36752449  0.12412470  0.34415366     1.58000
C562        C  0.23149738  0.17691094  0.33101277     0.92400
O563        O  0.35097582  0.07716856  0.32770828    -0.81300
H564        H  0.26947188  0.12538020  0.28827915    -0.06600
C565        C  0.31409261  0.19617903  0.36760133     0.87300
O566        O  0.38050386  0.21291856  0.29422166    -0.75800
O567        O  0.31968806  0.11353669  0.34747729    -0.88500
O568        O  0.23061777  0.15131451  0.33399615    -0.81300
C569        C  0.21984094  0.06209146  0.34327284     0.92500
C570        C  0.32514947  0.05247541  0.32404673     0.92400
Mg571      Mg  0.30604212  0.21207262  0.32213384     1.58000
O572        O  0.32326133  0.25903204  0.33970898    -0.81300
O573        O  0.28702613  0.16920577  0.29982223    -0.75500
O574        O  0.24398049  0.06121361  0.33716554    -0.81300
O575        O  0.41809002  0.13502552  0.33998516    -0.83100
O576        O  0.42835451  0.27305730  0.32638458    -0.81400
C577        C  0.27847617  0.14069914  0.30206054     0.86800
O578        O  0.35314555  0.22206530  0.31762733    -0.88500
O579        O  0.30205724  0.18442690  0.35011957    -0.88600
O580        O  0.34272928  0.21675033  0.36901352    -0.75700
Mg581      Mg  0.29006147  0.09234214  0.31952411     1.58000
O582        O  0.22082931  0.08739811  0.34814535    -0.83100
H583        H  0.37443397  0.14418894  0.28358774    -0.06800
O584        O  0.39276404  0.20515772  0.34450212    -0.88300
H585        H  0.40461482  0.21178477  0.37562852    -0.06600
H586        H  0.35208016  0.22978895  0.28614997    -0.06800
C587        C  0.39530041  0.19565820  0.36229336     0.86800
C588        C  0.35980154  0.13734139  0.29775537     0.87400
C589        C  0.36166399  0.22232028  0.29890991     0.87400
H590        H  0.30006262  0.18853272  0.38204577    -0.06800
O591        O  0.28961520  0.11963802  0.37020833    -0.75800
Mg592      Mg  0.38353073  0.24272905  0.34520917     1.58000
H593        H  0.31810236  0.10294479  0.37866118    -0.06800
C594        C  0.44281329  0.15966099  0.33439727     0.92400
O595        O  0.45026544  0.24645186  0.31366938    -0.83000
C596        C  0.45167555  0.27179034  0.31890269     0.92500
O597        O  0.29960648  0.05232133  0.32134179    -0.83000
Mg598      Mg  0.26279918  0.13696578  0.34967743     1.58200
O599        O  0.44266119  0.18376109  0.32813791    -0.81300
O600        O  0.25672403  0.20215820  0.32775023    -0.83000
O601        O  0.12183187  0.34397730  0.65478243    -0.88600
C602        C  0.19186025  0.38562079  0.69943622     0.87400
Mg603      Mg  0.08779940  0.29553307  0.65590428     1.58100
O604        O  0.21540425  0.37168749  0.64865377    -0.88300
O605        O  0.15636880  0.37691906  0.63244678    -0.75700
C606        C  0.16641206  0.22198511  0.66732874     0.92500
O607        O  0.11814676  0.32695481  0.70559809    -0.75500
O608        O  0.14167820  0.22049011  0.67468079    -0.83000
Mg609      Mg  0.12901035  0.36924960  0.68490416     1.58000
C610        C  0.27580086  0.33441217  0.65022281     0.92400
O611        O  0.13914369  0.41570849  0.67068754    -0.81300
H612        H  0.22201547  0.37965592  0.61703473    -0.06600
C613        C  0.19997754  0.30694652  0.69454854     0.87300
O614        O  0.11425904  0.28281967  0.63127489    -0.75800
O615        O  0.17810743  0.38362796  0.68242345    -0.88500
O616        O  0.27460076  0.35804837  0.65664140    -0.81300
C617        C  0.27506757  0.44196633  0.66994718     0.92500
C618        C  0.16197449  0.44056760  0.66334625     0.92400
Mg619      Mg  0.19928514  0.29358310  0.64643643     1.58000
O620        O  0.18926679  0.24696999  0.66017948    -0.81300
O621        O  0.21009431  0.33595374  0.62594906    -0.75500
O622        O  0.24920807  0.44049511  0.66557206    -0.81300
O623        O  0.07674640  0.35416987  0.68587023    -0.83100
O624        O  0.07879665  0.22219133  0.66709451    -0.81400
C625        C  0.21646068  0.36341793  0.63009297     0.86800
O626        O  0.15015083  0.27898888  0.64905974    -0.88500
O627        O  0.20674058  0.31882686  0.67654953    -0.88600
O628        O  0.17255524  0.28565853  0.69890301    -0.75700
Mg629      Mg  0.20105663  0.40562449  0.65208838     1.58000
O630        O  0.27726315  0.41811232  0.67379940    -0.83100
H631        H  0.11144236  0.34700251  0.62412045    -0.06800
O632        O  0.11343475  0.29135699  0.68301277    -0.88300
H633        H  0.10650361  0.28334576  0.71461093    -0.06600
H634        H  0.14332268  0.26996313  0.61753030    -0.06800
C635        C  0.11210680  0.29956683  0.70153531     0.86800
C636        C  0.12885845  0.35571249  0.63673500     0.87400
C637        C  0.13616044  0.27661410  0.63210696     0.87400
H638        H  0.21754864  0.31557807  0.70706103    -0.06800
O639        O  0.21379119  0.37944529  0.70029287    -0.75800
Mg640      Mg  0.12759910  0.25712878  0.67953708     1.58000
H641        H  0.18444857  0.39191058  0.71405685    -0.06800
C642        C  0.05237696  0.32839488  0.68142818     0.92400
O643        O  0.05141659  0.24524751  0.65872173    -0.83000
C644        C  0.05307597  0.22130159  0.66321836     0.92500
O645        O  0.18683999  0.44205615  0.65634796    -0.83000
Mg646      Mg  0.24078345  0.36734503  0.67576047     1.58200
O647        O  0.05384374  0.30503133  0.67472726    -0.81300
O648        O  0.25138256  0.30873445  0.64570277    -0.83000
C649        C  0.37344151  0.38249038  0.77149522    -0.26600
C650        C  0.35354282  0.37377375  0.75342371    -0.14700
C651        C  0.32661189  0.37689905  0.75450342     0.36000
C652        C  0.31988501  0.38759750  0.77369524    -0.26000
C653        C  0.33970102  0.39589586  0.79164613    -0.15300
C654        C  0.36691978  0.39359547  0.79048307     0.37100
N655        N  0.38841856  0.40355010  0.80829148    -0.89500
H656        H  0.39441501  0.38076981  0.77085411     0.18200
H657        H  0.29902287  0.38949371  0.77470668     0.18200
N658        N  0.30646367  0.36980749  0.73612600    -0.88600
H659        H  0.40833797  0.40238792  0.80425167     0.35500
H660        H  0.37777818  0.38793710  0.82090637     0.40600
H661        H  0.31905527  0.38618277  0.72424569     0.40300
H662        H  0.28736510  0.37255895  0.73986250     0.35100
C663        C  0.33077224  0.25691670  0.55837353    -0.26600
C664        C  0.32281257  0.26793735  0.57688609    -0.14700
C665        C  0.29887553  0.27580609  0.57508027     0.36000
C666        C  0.28409527  0.27266439  0.55539272    -0.26000
C667        C  0.29192397  0.26142616  0.53726014    -0.15300
C668        C  0.31538937  0.25348125  0.53866897     0.37100
N669        N  0.32326495  0.24150538  0.52019468    -0.89500
H670        H  0.34903578  0.25095876  0.55911170     0.18200
H671        H  0.26582418  0.27860087  0.55430202     0.18200
N672        N  0.28934098  0.28785061  0.59261163    -0.88600
H673        H  0.31986217  0.21961894  0.52410000     0.35500
H674        H  0.34698383  0.25605227  0.51698706     0.40600
H675        H  0.28125564  0.27183400  0.60519670     0.40300
H676        H  0.30847754  0.30881269  0.59749545     0.35100
C677        C  0.50185266  0.29202223  0.57522303    -0.26600
C678        C  0.47554193  0.29583738  0.57573318    -0.14700
C679        C  0.45720490  0.28909466  0.55683914     0.36000
C680        C  0.46458933  0.27757421  0.53848076    -0.26000
C681        C  0.49000349  0.27249040  0.53827187    -0.15300
C682        C  0.50944469  0.28065108  0.55677845     0.37100
N683        N  0.53744554  0.27865643  0.55735095    -0.89500
H684        H  0.51639611  0.29731916  0.58942464     0.18200
H685        H  0.44992073  0.27201543  0.52431202     0.18200
N686        N  0.43092872  0.29384460  0.55611424    -0.88600
H687        H  0.53420709  0.26180515  0.56866695     0.35500
H688        H  0.54204209  0.27180981  0.54255089     0.40600
H689        H  0.41108877  0.27265952  0.55240967     0.40300
H690        H  0.43447826  0.30929994  0.54362630     0.35100
C691        C  0.31699652  0.46057140  0.78544680    -0.26600
C692        C  0.33913913  0.45589400  0.79621691    -0.14700
C693        C  0.37103364  0.47505456  0.79161900     0.36000
C694        C  0.38005093  0.49738477  0.77528495    -0.26000
C695        C  0.35779420  0.50106882  0.76347687    -0.15300
C696        C  0.32579295  0.48267469  0.76914411     0.37100
N697        N  0.30284302  0.98850672  0.75927753    -0.89500
H698        H  0.29251985  0.44652630  0.78955593     0.18200
H699        H  0.40457427  0.51121610  0.77130087     0.18200
N700        N  0.39407442  0.47168844  0.80353937    -0.88600
H701        H  0.29930435  0.47852519  0.74291968     0.35500
H702        H  0.30971969  0.01206217  0.75959655     0.40600
H703        H  0.39289722  0.47744433  0.81958973     0.40300
H704        H  0.41651949  0.48746157  0.79812754     0.35100
C705        C  0.29342523  0.05707844  0.54556598    -0.26600
C706        C  0.27796972  0.02543965  0.54041539    -0.14700
C707        C  0.27762665  0.00411135  0.55540490     0.36000
C708        C  0.29319395  0.01493189  0.57521453    -0.26000
C709        C  0.30994514  0.04681047  0.58016033    -0.15300
C710        C  0.30957379  0.06796482  0.56517970     0.37100
N711        N  0.32590081  0.10055703  0.56963155    -0.89500
H712        H  0.29363947  0.07349998  0.53406463     0.18200
H713        H  0.29364190  0.99842630  0.58632192     0.18200
N714        N  0.26270337  0.97170097  0.55001214    -0.88600
H715        H  0.30982983  0.10837077  0.56902345     0.35500
H716        H  0.34229812  0.11165641  0.55741238     0.40600
H717        H  0.23372848  0.46337419  0.55095584     0.40300
H718        H  0.25810180  0.45680892  0.56574202     0.35100
C719        C  0.44398629  0.17186765  0.56154005    -0.26600
C720        C  0.46620195  0.16637542  0.57173783    -0.14700
C721        C  0.49725285  0.18184102  0.56391613     0.36000
C722        C  0.50522815  0.20235350  0.54662724    -0.26000
C723        C  0.48332287  0.20874239  0.53713363    -0.15300
C724        C  0.45205252  0.19272500  0.54439916     0.37100
N725        N  0.42765726  0.19611456  0.53445937    -0.89500
H726        H  0.42006288  0.16028814  0.56717906     0.18200
H727        H  0.52896747  0.21373099  0.54062519     0.18200
N728        N  0.52114771  0.17694645  0.57283895    -0.88600
H729        H  0.41990456  0.20637971  0.54575914     0.35500
H730        H  0.43556987  0.21071612  0.52112760     0.40600
H731        H  0.51326442  0.15316266  0.57286904     0.40300
H732        H  0.52582836  0.18545154  0.58860248     0.35100
C733        C  0.01559280  0.41894263  0.79233160    -0.26600
C734        C  0.03146479  0.40288630  0.79692770    -0.14700
C735        C  0.03141073  0.38173148  0.78187205     0.36000
C736        C  0.01707340  0.37849036  0.76182052    -0.26000
C737        C  0.00232391  0.39559828  0.75668295    -0.15300
C738        C  0.00130435  0.41584953  0.77223353     0.37100
N739        N  0.98639028  0.43360973  0.76746668    -0.89500
H740        H  0.01548391  0.43489499  0.80419734     0.18200
H741        H  0.51211400  0.35974555  0.75348220     0.18200
N742        N  0.04533517  0.36321784  0.78717580    -0.88600
H743        H  0.98762396  0.44720668  0.78071320     0.35500
H744        H  0.99904442  0.44897656  0.75508829     0.40600
H745        H  0.06915177  0.37803370  0.78963908     0.40300
H746        H  0.53573014  0.34589798  0.77932222     0.35100
C747        C  0.03047456  0.15244587  0.76309482    -0.26600
C748        C  0.01428138  0.12081881  0.75734213    -0.14700
C749        C  0.51437432  0.09856317  0.77165643     0.36000
C750        C  0.03447770  0.11002537  0.79011841    -0.26000
C751        C  0.05006700  0.14149051  0.79598960    -0.15300
C752        C  0.04819641  0.16304156  0.78213801     0.37100
N753        N  0.06391579  0.19574806  0.78671259    -0.89500
H754        H  0.02883058  0.16920935  0.75291104     0.18200
H755        H  0.03618215  0.09356841  0.80057589     0.18200
N756        N  0.49526186  0.06595716  0.76779933    -0.88600
H757        H  0.08022293  0.20699646  0.77447210     0.35500
H758        H  0.07652694  0.20119822  0.80106761     0.40600
H759        H  0.47891032  0.05653793  0.78023507     0.40300
H760        H  0.50950121  0.05598263  0.76846593     0.35100
C761        C  0.11612440  0.46883395  0.76101929    -0.26600
C762        C  0.10427350  0.48857067  0.75620923    -0.14700
C763        C  0.08678846  0.99525075  0.77343562     0.36000
C764        C  0.08121681  0.47861626  0.79211995    -0.26000
C765        C  0.09236919  0.45829345  0.79659906    -0.15300
C766        C  0.11052093  0.45374228  0.78092233     0.37100
N767        N  0.12427654  0.43465877  0.78470375    -0.89500
H768        H  0.13065401  0.46563369  0.74940880     0.18200
H769        H  0.06732078  0.48205039  0.80413628     0.18200
N770        N  0.07522380  0.01615234  0.76939252    -0.88600
H771        H  0.11497216  0.41660581  0.77343314     0.35500
H772        H  0.11891501  0.42465544  0.79997127     0.40600
H773        H  0.06447991  0.01877793  0.78311526     0.40300
H774        H  0.05786353  0.00596522  0.75760662     0.35100
C775        C  0.13049270  0.11472584  0.77736953    -0.26600
C776        C  0.14295722  0.13736682  0.76110259    -0.14700
C777        C  0.14044755  0.16441375  0.76318678     0.36000
C778        C  0.12424197  0.16726111  0.78077521    -0.26000
C779        C  0.11127906  0.14424616  0.79652447    -0.15300
C780        C  0.11483682  0.11798861  0.79510032     0.37100
N781        N  0.10267916  0.09489049  0.81173873    -0.89500
H782        H  0.13233977  0.09399197  0.77608442     0.18200
H783        H  0.12234965  0.18792594  0.78255310     0.18200
N784        N  0.15391104  0.18872298  0.74743653    -0.88600
H785        H  0.10756341  0.07715330  0.80836992     0.35500
H786        H  0.07839885  0.08473951  0.81165173     0.40600
H787        H  0.17815518  0.19881654  0.74855186     0.40300
H788        H  0.14883130  0.20626608  0.75104024     0.35100
C789        C  0.20102406  0.04695345  0.55282111    -0.26600
C790        C  0.18394955  0.02354566  0.56803049    -0.14700
C791        C  0.17998510  0.99371675  0.56439137     0.36000
C792        C  0.19465354  0.98858399  0.54673133    -0.26000
C793        C  0.21361288  0.01267757  0.53266525    -0.15300
C794        C  0.21585266  0.04196265  0.53527250     0.37100
N795        N  0.23364053  0.06743425  0.52091076    -0.89500
H796        H  0.20418337  0.06995333  0.55500768     0.18200
H797        H  0.19194511  0.96580073  0.54437395     0.18200
N798        N  0.16189424  0.96871641  0.57885053    -0.88600
H799        H  0.21814097  0.07317199  0.51363473     0.35500
H800        H  0.24371404  0.06130928  0.50846263     0.40600
H801        H  0.17632820  0.96082703  0.58505563     0.40300
H802        H  0.14409539  0.95063615  0.57000202     0.35100
C803        C  0.21082735  0.19484596  0.57172884    -0.26600
C804        C  0.22317565  0.17512248  0.57493463    -0.14700
C805        C  0.23989299  0.17090843  0.55798721     0.36000
C806        C  0.24376475  0.18647750  0.53841065    -0.26000
C807        C  0.23167003  0.20635611  0.53545590    -0.15300
C808        C  0.21467597  0.21034562  0.55225515     0.37100
N809        N  0.20205511  0.23078262  0.55050974    -0.89500
H810        H  0.19751476  0.19797310  0.58436659     0.18200
H811        H  0.25744757  0.18418146  0.52565135     0.18200
N812        N  0.25329288  0.15130677  0.56075474    -0.88600
H813        H  0.17780917  0.21727952  0.55191133     0.35500
H814        H  0.20638945  0.24139080  0.53546763     0.40600
H815        H  0.27060645  0.16147768  0.57257150     0.40300
H816        H  0.26442641  0.15047471  0.54665308     0.35100
C817        C  0.01015271  0.34679909  0.89779337    -0.26600
C818        C  0.02596692  0.33073499  0.90303281    -0.14700
C819        C  0.05387380  0.33834168  0.89163616     0.36000
C820        C  0.06497766  0.36135729  0.87574638    -0.26000
C821        C  0.04921774  0.37738755  0.87082930    -0.15300
C822        C  0.02147122  0.36984128  0.88185309     0.37100
N823        N  0.00504227  0.38603200  0.87714736    -0.89500
H824        H  0.98910946  0.34188189  0.90639356     0.18200
H825        H  0.08608672  0.36668846  0.86708156     0.18200
N826        N  0.56816334  0.32393020  0.89426093    -0.88600
H827        H  0.00362113  0.39663553  0.89133262     0.35500
H828        H  0.98236485  0.36972773  0.87241739     0.40600
H829        H  0.55419207  0.30036455  0.89078727     0.40300
H830        H  0.57498118  0.32685896  0.91042633     0.35100
C831        C  0.04169325  0.17260203  0.90630015    -0.26600
C832        C  0.05742287  0.20469007  0.91061051    -0.14700
C833        C  0.07998694  0.22476589  0.89565847     0.36000
C834        C  0.08660410  0.21253944  0.87719318    -0.26000
C835        C  0.07067044  0.18054416  0.87289098    -0.15300
C836        C  0.04775440  0.16031828  0.88767070     0.37100
N837        N  0.02986739  0.12734514  0.88428692    -0.89500
H838        H  0.02375068  0.15677816  0.91723431     0.18200
H839        H  0.10428776  0.22821164  0.86604170     0.18200
N840        N  0.09643435  0.25759555  0.89915940    -0.88600
H841        H  0.03476394  0.11669716  0.89698725     0.35500
H842        H  0.03627540  0.12058962  0.87015238     0.40600
H843        H  0.09228024  0.26804600  0.88597032     0.40300
H844        H  0.12031373  0.26517022  0.89963035     0.35100
C845        C  0.31716756  0.35616160  0.90119790    -0.26600
C846        C  0.28546317  0.33815510  0.90669700    -0.14700
C847        C  0.26267856  0.33637025  0.89217499     0.36000
C848        C  0.27191337  0.35249609  0.87269228    -0.26000
C849        C  0.30351840  0.37113965  0.86753751    -0.15300
C850        C  0.32653734  0.37269913  0.88184075     0.37100
N851        N  0.35941116  0.39045720  0.87729770    -0.89500
H852        H  0.33494185  0.35713047  0.91189914     0.18200
H853        H  0.25423918  0.35134866  0.86180590     0.18200
N854        N  0.23016006  0.31902918  0.89735765    -0.88600
H855        H  0.36990930  0.40726570  0.88934393     0.35500
H856        H  0.36389957  0.40225939  0.86271964     0.40600
H857        H  0.21876907  0.30300271  0.88497898     0.40300
H858        H  0.22147110  0.33434160  0.89756025     0.35100
C859        C  0.15668148  0.20264958  0.87160551    -0.26600
C860        C  0.12797071  0.17507389  0.87193429    -0.14700
C861        C  0.12149313  0.15325031  0.88825747     0.36000
C862        C  0.14338115  0.16018096  0.90472528    -0.26000
C863        C  0.17198960  0.18831845  0.90499008    -0.15300
C864        C  0.17882493  0.20966380  0.88794651     0.37100
N865        N  0.20793880  0.23838464  0.88720577    -0.89500
H866        H  0.16178403  0.21874318  0.85845162     0.18200
H867        H  0.13778244  0.14351748  0.91754017     0.18200
N868        N  0.09288108  0.12401069  0.88787891    -0.88600
H869        H  0.20700930  0.25277090  0.89911157     0.35500
H870        H  0.21028630  0.24971815  0.87258974     0.40600
H871        H  0.09326004  0.11182508  0.87424197     0.40300
H872        H  0.09149992  0.11061422  0.90121109     0.35100
C873        C  0.15770983  0.45239150  0.89214078    -0.26600
C874        C  0.14719981  0.46086943  0.91068218    -0.14700
C875        C  0.11717525  0.45796793  0.91019508     0.36000
C876        C  0.09883697  0.44702533  0.89133755    -0.26000
C877        C  0.10954180  0.43864232  0.87298501    -0.15300
C878        C  0.13941417  0.44149773  0.87347261     0.37100
N879        N  0.15148351  0.43273697  0.85544957    -0.89500
H880        H  0.18039784  0.45402768  0.89212306     0.18200
H881        H  0.07593516  0.44488926  0.89094492     0.18200
N882        N  0.10500227  0.46541518  0.92888991    -0.88600
H883        H  0.15368626  0.44676345  0.84234196     0.35500
H884        H  0.13561274  0.40972289  0.85141125     0.40600
H885        H  0.10147898  0.44915290  0.94077099     0.40300
H886        H  0.08308788  0.46283354  0.92561588     0.35100
C887        C  0.30481932  0.44527234  0.90616398    -0.26600
C888        C  0.27245194  0.43239890  0.90920957    -0.14700
C889        C  0.25202153  0.41599323  0.89204278     0.36000
C890        C  0.26424662  0.41276929  0.87242248    -0.26000
C891        C  0.29647389  0.42542592  0.86971124    -0.15300
C892        C  0.31688299  0.44208157  0.88657085     0.37100
N893        N  0.34991962  0.45599247  0.88375198    -0.89500
H894        H  0.32109532  0.45863060  0.91885824     0.18200
H895        H  0.24849185  0.39972567  0.85940065     0.18200
N896        N  0.21894678  0.40233509  0.89445310    -0.88600
H897        H  0.35336227  0.93819076  0.89768460     0.35500
H898        H  0.35984874  0.47988873  0.88607700     0.40600
H899        H  0.20872794  0.37854409  0.89149865     0.40300
H900        H  0.21094751  0.41170209  0.88269981     0.35100
C901        C  0.43587795  0.33465092  0.10610391    -0.26600
C902        C  0.42656420  0.31705398  0.12502716    -0.14700
C903        C  0.42168586  0.28662072  0.12454684     0.36000
C904        C  0.42709648  0.27476040  0.10554025    -0.26000
C905        C  0.43718267  0.29246341  0.08652595    -0.15300
C906        C  0.44087773  0.32269152  0.08681199     0.37100
N907        N  0.44989837  0.34134874  0.06767224    -0.89500
H908        H  0.43908789  0.35781411  0.10636976     0.18200
H909        H  0.42394832  0.25161483  0.10587548     0.18200
N910        N  0.41100737  0.26714109  0.14316698    -0.88600
H911        H  0.45235158  0.36310594  0.07081711     0.35500
H912        H  0.43161736  0.33043191  0.05659582     0.40600
H913        H  0.38971619  0.26487998  0.14799502     0.40300
H914        H  0.42720082  0.27796207  0.15557334     0.35100
C915        C  0.34539704  0.29211350  0.12507047    -0.26600
C916        C  0.36976659  0.32251627  0.12776538    -0.14700
C917        C  0.37250847  0.34598199  0.11388639     0.36000
C918        C  0.35126749  0.33830190  0.09685502    -0.26000
C919        C  0.32706951  0.30762421  0.09357613    -0.15300
C920        C  0.32407468  0.28421587  0.10803139     0.37100
N921        N  0.30011190  0.25242481  0.10515053    -0.89500
H922        H  0.34333961  0.27442036  0.13615640     0.18200
H923        H  0.35392577  0.35638398  0.08593621     0.18200
N924        N  0.39715527  0.37742960  0.11701443    -0.88600
H925        H  0.30006775  0.23883671  0.11796835     0.35500
H926        H  0.30583649  0.24409636  0.09142178     0.40600
H927        H  0.39322898  0.38519027  0.13172006     0.40300
H928        H  0.39633807  0.39184488  0.10513902     0.35100
C929        C  0.31655842  0.50637747  0.43472396    -0.26600
C930        C  0.30653741  0.47554813  0.42863206    -0.14700
C931        C  0.28344294  0.45124277  0.44146752     0.36000
C932        C  0.27096999  0.45821680  0.45941607    -0.26000
C933        C  0.28059406  0.48886824  0.46515776    -0.15300
C934        C  0.30387296  0.51315594  0.45289436     0.37100
N935        N  0.31361395  0.54467830  0.45829787    -0.89500
H936        H  0.33388499  0.52530625  0.42513878     0.18200
H937        H  0.25274198  0.43941947  0.46861624     0.18200
N938        N  0.27085899  0.41913800  0.43621886    -0.88600
H939        H  0.30928567  0.55485660  0.44502410     0.35500
H940        H  0.33769807  0.55628453  0.46096965     0.40600
H941        H  0.28857395  0.41357990  0.43732903     0.40300
H942        H  0.26192378  0.41514328  0.42054924     0.35100
C943        C  0.30517470  0.31562278  0.43355245    -0.26600
C944        C  0.28789642  0.33018245  0.42823636    -0.14700
C945        C  0.26402291  0.32703335  0.44221489     0.36000
C946        C  0.25742462  0.30891712  0.46078718    -0.26000
C947        C  0.27384031  0.29339852  0.46545193    -0.15300
C948        C  0.29846676  0.29737023  0.45205869     0.37100
N949        N  0.31656044  0.28291871  0.45732485    -0.89500
H950        H  0.32421682  0.31863139  0.42330240     0.18200
H951        H  0.23879828  0.30625276  0.47134197     0.18200
N952        N  0.24586909  0.34140050  0.43739110    -0.88600
H953        H  0.33406844  0.28844309  0.44588464     0.35500
H954        H  0.30187272  0.25892551  0.45656943     0.40600
H955        H  0.24790679  0.35577076  0.45034378     0.40300
H956        H  0.22247741  0.32399695  0.43623878     0.35100
C957        C  0.36902954  0.37858241  0.22454189    -0.26600
C958        C  0.36335843  0.35887498  0.24227849    -0.14700
C959        C  0.37068297  0.33483898  0.24051745     0.36000
C960        C  0.38322090  0.33115643  0.22114761    -0.26000
C961        C  0.38999461  0.35174336  0.20397091    -0.15300
C962        C  0.38263289  0.37553933  0.20558896     0.37100
N963        N  0.38905828  0.39653519  0.18795002    -0.89500
H964        H  0.36362621  0.39712453  0.22561177     0.18200
H965        H  0.38790881  0.31220917  0.21945681     0.18200
N966        N  0.36622994  0.31477827  0.25840811    -0.88600
H967        H  0.38198123  0.41260657  0.19164163     0.35500
H968        H  0.41324587  0.40920126  0.18592384     0.40600
H969        H  0.38232810  0.32818711  0.27032216     0.40300
H970        H  0.37168282  0.29772704  0.25404379     0.35100
C971        C  0.05267968  0.32062255  0.43535940    -0.26600
C972        C  0.02869424  0.32119424  0.42345679    -0.14700
C973        C  0.99762222  0.30319631  0.43084787     0.36000
C974        C  0.49101149  0.28506321  0.44885348    -0.26000
C975        C  0.01547209  0.28390555  0.46097524    -0.15300
C976        C  0.04658264  0.30240961  0.45385841     0.37100
N977        N  0.07272322  0.30391980  0.46513039    -0.89500
H978        H  0.07669787  0.33422084  0.43010381     0.18200
H979        H  0.46736452  0.27178061  0.45488096     0.18200
N980        N  0.47208548  0.30513341  0.41963193    -0.88600
H981        H  0.08274848  0.29441084  0.45505605     0.35500
H982        H  0.06603532  0.29080513  0.47920393     0.40600
H983        H  0.47629972  0.32782306  0.42121901     0.40300
H984        H  0.45085026  0.29083588  0.42732403     0.35100
C985        C  0.17107939  0.43224986  0.43964735    -0.26600
C986        C  0.18140696  0.44960914  0.42053876    -0.14700
C987        C  0.20993754  0.47836362  0.42096732     0.36000
C988        C  0.22604396  0.48953652  0.44036100    -0.26000
C989        C  0.21486121  0.47277625  0.45949034    -0.15300
C990        C  0.18748807  0.44364143  0.45903561     0.37100
N991        N  0.17619189  0.42567340  0.47830413    -0.89500
H992        H  0.14944265  0.41026255  0.43983321     0.18200
H993        H  0.24710624  0.51200526  0.44059131     0.18200
N994        N  0.22333433  0.49693619  0.40214911    -0.88600
H995        H  0.17486942  0.40430989  0.47559827     0.35500
H996        H  0.15361060  0.42156565  0.48118798     0.40600
H997        H  0.20938150  0.50596803  0.39703756     0.40300
H998        H  0.22488404  0.48314327  0.39002474     0.35100
C999        C  0.45320760  0.33868525  0.21498838    -0.26600
C1000       C  0.45374579  0.36028687  0.20042904    -0.14700
C1001       C  0.47327684  0.39232649  0.20477979     0.36000
C1002       C  0.49130104  0.40175968  0.22375922    -0.26000
C1003       C  0.49023394  0.38015058  0.23879724    -0.15300
C1004       C  0.47051515  0.34801425  0.23425380     0.37100
N1005       N  0.46809080  0.32471257  0.24901933    -0.89500
H1006       H  0.43822158  0.31421070  0.21161214     0.18200
H1007       H  0.50631189  0.42633674  0.22672056     0.18200
N1008       N  0.47542325  0.41593186  0.19042940    -0.88600
H1009       H  0.45450392  0.30251313  0.24248398     0.35500
H1010       H  0.45594337  0.32561962  0.26253470     0.40600
H1011       H  0.46162173  0.40640179  0.17673668     0.40300
H1012       H  0.49847560  0.42843264  0.18500898     0.35100
C1013       C  0.47532387  0.12813269  0.11786467    -0.26600
C1014       C  0.44676746  0.11984255  0.12786224    -0.14700
C1015       C  0.43152081  0.13660970  0.12283894     0.36000
C1016       C  0.44408519  0.15977461  0.10686399    -0.26000
C1017       C  0.47181894  0.16690146  0.09588907    -0.15300
C1018       C  0.48800475  0.15135454  0.10199045     0.37100
N1019       N  0.51725859  0.15912272  0.09205082    -0.89500
H1020       H  0.48772398  0.11620476  0.12244585     0.18200
H1021       H  0.43152619  0.17161663  0.10250308     0.18200
N1022       N  0.40403037  0.13092528  0.13447387    -0.88600
H1023       H  0.52598628  0.14542692  0.09821038     0.35500
H1024       H  0.53327299  0.18203386  0.09626833     0.40600
H1025       H  0.38603275  0.10896770  0.13014170     0.40300
H1026       H  0.39681071  0.14649725  0.12973299     0.35100
C1027       C  0.35692691  0.04598274  0.12542883    -0.26600
C1028       C  0.38874188  0.05532025  0.12395057    -0.14700
C1029       C  0.40047479  0.05133756  0.10423565     0.36000
C1030       C  0.38081406  0.04016493  0.08607853    -0.26000
C1031       C  0.34933254  0.03242794  0.08731492    -0.15300
C1032       C  0.33723706  0.03459261  0.10742817     0.37100
N1033       N  0.30481048  0.02482080  0.10976246    -0.89500
H1034       H  0.34732070  0.04785568  0.14068709     0.18200
H1035       H  0.39044074  0.03819522  0.07086427     0.18200
N1036       N  0.43204712  0.05780884  0.10270884    -0.88600
H1037       H  0.30284923  0.54264792  0.11572055     0.35500
H1038       H  0.29576091  0.50650993  0.12128381     0.40600
H1039       H  0.43164042  0.03741541  0.09803457     0.40300
H1040       H  0.44304362  0.07411404  0.09049404     0.35100
C1041       C  0.39509469  0.99219091  0.22246815    -0.26600
C1042       C  0.38782531  0.00443387  0.24066037    -0.14700
C1043       C  0.38779320  0.03274748  0.23854169     0.36000
C1044       C  0.39470802  0.04770458  0.21848876    -0.26000
C1045       C  0.40294787  0.03593824  0.20066513    -0.15300
C1046       C  0.40240312  0.00746214  0.20260152     0.37100
N1047       N  0.40914371  0.99350109  0.18471679    -0.89500
H1048       H  0.39459142  0.97022218  0.22350604     0.18200
H1049       H  0.39464653  0.06933163  0.21686983     0.18200
N1050       N  0.38445038  0.54858767  0.25776728    -0.88600
H1051       H  0.43110012  0.00926689  0.17860421     0.35500
H1052       H  0.39256390  0.98870805  0.17269206     0.40600
H1053       H  0.38522636  0.56925054  0.25346830     0.40300
H1054       H  0.40295749  0.55468194  0.26847121     0.35100
C1055       C  0.23175418  0.14383017  0.12204466    -0.26600
C1056       C  0.20142848  0.13102183  0.13024271    -0.14700
C1057       C  0.17864578  0.13433330  0.11882101     0.36000
C1058       C  0.18606150  0.14801432  0.09840634    -0.26000
C1059       C  0.21604193  0.15947645  0.08976030    -0.15300
C1060       C  0.23912992  0.15757955  0.10176090     0.37100
N1061       N  0.26988222  0.16909040  0.09323931    -0.89500
H1062       H  0.24969675  0.14273166  0.13132450     0.18200
H1063       H  0.16880220  0.15096035  0.08960719     0.18200
N1064       N  0.14871333  0.12512782  0.12831641    -0.88600
H1065       H  0.27426381  0.15063094  0.09242155     0.35500
H1066       H  0.28583460  0.18544004  0.10406258     0.40600
H1067       H  0.13697428  0.10125018  0.13088495     0.40300
H1068       H  0.13488754  0.12952612  0.11780352     0.35100
C1069       C  0.19395217  0.05275075  0.09474280    -0.26600
C1070       C  0.22587409  0.06324560  0.09142449    -0.14700
C1071       C  0.24699262  0.07875485  0.10846804     0.36000
C1072       C  0.23591798  0.08336952  0.12818116    -0.26000
C1073       C  0.20428086  0.07385200  0.13103578    -0.15300
C1074       C  0.18297591  0.05782572  0.11431590     0.37100
N1075       N  0.15020740  0.04628181  0.11739030    -0.89500
H1076       H  0.17724069  0.04011924  0.08210035     0.18200
H1077       H  0.25236411  0.09580344  0.14101759     0.18200
N1078       N  0.27975104  0.09049256  0.10579693    -0.88600
H1079       H  0.13751941  0.03367480  0.10390358     0.35500
H1080       H  0.14697145  0.06536525  0.11845433     0.40600
H1081       H  0.28702823  0.08086888  0.11781820     0.40300
H1082       H  0.29127856  0.11445711  0.10832309     0.35100
C1083       C  0.18721786  0.05133325  0.21787528    -0.26600
C1084       C  0.16476544  0.05467817  0.20621575    -0.14700
C1085       C  0.13288090  0.03617053  0.21166418     0.36000
C1086       C  0.12444038  0.01522254  0.22875532    -0.26000
C1087       C  0.14683373  0.01192595  0.24062613    -0.15300
C1088       C  0.17866442  0.03017662  0.23500265     0.37100
N1089       N  0.20214259  0.02701394  0.24649508    -0.89500
H1090       H  0.21157232  0.06517474  0.21341297     0.18200
H1091       H  0.09780886  0.50215543  0.23303744     0.18200
N1092       N  0.10831550  0.03716603  0.19994892    -0.88600
H1093       H  0.22434972  0.04231999  0.24045924     0.35500
H1094       H  0.19517640  0.50374651  0.24400906     0.40600
H1095       H  0.11665426  0.05181948  0.18666472     0.40300
H1096       H  0.09803982  0.04611214  0.21030088     0.35100
C1097       C  0.04343860  0.22108879  0.46299188    -0.26600
C1098       C  0.01655576  0.22368527  0.46187310    -0.14700
C1099       C  0.99622475  0.21084118  0.44421753     0.36000
C1100       C  0.00372121  0.19633829  0.42765719    -0.26000
C1101       C  0.03104565  0.19410500  0.42844484    -0.15300
C1102       C  0.05101154  0.20670193  0.44661551     0.37100
N1103       N  0.07898555  0.20517843  0.44917161    -0.89500
H1104       H  0.05869178  0.23028559  0.47688432     0.18200
H1105       H  0.98825383  0.18714986  0.41389727     0.18200
N1106       N  0.46643914  0.21030296  0.44294710    -0.88600
H1107       H  0.09473625  0.21837727  0.43713777     0.35500
H1108       H  0.07352510  0.18207185  0.44784738     0.40600
H1109       H  0.45250169  0.19743304  0.45588647     0.40300
H1110       H  0.45398161  0.19949508  0.42893099     0.35100
C1111       C  0.20685593  0.22205625  0.42399363    -0.26600
C1112       C  0.18421988  0.23121805  0.42241258    -0.14700
C1113       C  0.17754624  0.24372282  0.44088223     0.36000
C1114       C  0.19238244  0.24521477  0.46053201    -0.26000
C1115       C  0.21478028  0.23593798  0.46189660    -0.15300
C1116       C  0.22215787  0.22431921  0.44350803     0.37100
N1117       N  0.24536079  0.21504821  0.44475535    -0.89500
H1118       H  0.21209230  0.21222118  0.41011209     0.18200
H1119       H  0.18750857  0.25491891  0.47466351     0.18200
N1120       N  0.15611989  0.25523943  0.43963229    -0.88600
H1121       H  0.24843667  0.20736142  0.42975140     0.35500
H1122       H  0.23699563  0.19613215  0.45519106     0.40600
H1123       H  0.16583031  0.27430655  0.42928915     0.40300
H1124       H  0.15371695  0.26341382  0.45463897     0.35100
C1125       C  0.49531613  0.08721533  0.22804426    -0.26600
C1126       C  0.49162378  0.10638279  0.24305361    -0.14700
C1127       C  0.47280575  0.11943938  0.23726798     0.36000
C1128       C  0.45872600  0.11331046  0.21694616    -0.26000
C1129       C  0.46212891  0.09378116  0.20231550    -0.15300
C1130       C  0.48061975  0.08072725  0.20787178     0.37100
N1131       N  0.48471297  0.06105296  0.19296083    -0.89500
H1132       H  0.50991664  0.07735106  0.23188489     0.18200
H1133       H  0.44422485  0.12316302  0.21274722     0.18200
N1134       N  0.96085621  0.13215924  0.25488886    -0.88600
H1135       H  0.50855440  0.07106811  0.18971896     0.35500
H1136       H  0.47748366  0.03979816  0.20051212     0.40600
H1137       H  0.98107136  0.15286928  0.25884063     0.40300
H1138       H  0.95155177  0.11865238  0.26868485     0.35100
C1139       C  0.18092144  0.12365179  0.22416936    -0.26600
C1140       C  0.16348263  0.11503758  0.20512987    -0.14700
C1141       C  0.13839372  0.12070561  0.20295870     0.36000
C1142       C  0.13092354  0.13456093  0.21990804    -0.26000
C1143       C  0.14833748  0.14332999  0.23908421    -0.15300
C1144       C  0.17359593  0.13752652  0.24124989     0.37100
N1145       N  0.19129950  0.14494525  0.26091845    -0.89500
H1146       H  0.20051559  0.11972994  0.22562910     0.18200
H1147       H  0.11127607  0.13832430  0.21806382     0.18200
N1148       N  0.12030330  0.11218015  0.18354397    -0.88600
H1149       H  0.20955391  0.14016242  0.25951429     0.35500
H1150       H  0.17649739  0.13019216  0.27287918     0.40600
H1151       H  0.12152540  0.13213651  0.17710909     0.40300
H1152       H  0.09704738  0.09678760  0.18754585     0.35100
O1153       O  0.02842807  0.63592503  0.33116094    -0.88600
C1154       C  0.09199630  0.69554793  0.28641011     0.87400
Mg1155     Mg  0.02342884  0.65033481  0.36311698     1.58100
O1156       O  0.11123041  0.64334905  0.31078858    -0.88300
O1157       O  0.03719189  0.60213601  0.31475406    -0.75700
C1158       C  0.16549610  0.72425598  0.40281051     0.92500
O1159       O  0.05390748  0.70935492  0.32538820    -0.75500
O1160       O  0.13954842  0.72366778  0.40349979    -0.83000
Mg1161     Mg  0.02916844  0.66506948  0.30492460     1.58000
C1162       C  0.20187509  0.67794231  0.33259554     0.92400
O1163       O  0.00159346  0.62533120  0.28066176    -0.81300
H1164       H  0.10206561  0.60016885  0.31671452    -0.06600
C1165       C  0.15166152  0.73024242  0.33837733     0.87300
O1166       O  0.05398201  0.63235507  0.37800068    -0.75800
O1167       O  0.07305006  0.67037063  0.29430353    -0.88500
O1168       O  0.18735428  0.67628257  0.31539029    -0.81300
C1169       C  0.13643090  0.65390083  0.25725895     0.92500
C1170       C  0.00934479  0.61484151  0.26447303     0.92400
Mg1171     Mg  0.14617899  0.67459143  0.36209218     1.58000
O1172       O  0.17362303  0.71490248  0.38616033    -0.81300
O1173       O  0.12187468  0.63008921  0.34172622    -0.75500
O1174       O  0.10750340  0.64518022  0.25912914    -0.81300
O1175       O  0.48263719  0.65907774  0.31610987    -0.83100
O1176       O  0.06742420  0.69024316  0.40766816    -0.81400
C1177       C  0.11156762  0.62364103  0.32259701     0.86800
O1178       O  0.10204663  0.66854469  0.37234776    -0.88500
O1179       O  0.14627946  0.70337730  0.33588138    -0.88600
O1180       O  0.13743423  0.73702646  0.35253712    -0.75700
Mg1181     Mg  0.07353496  0.62799697  0.28818426     1.58000
O1182       O  0.15594868  0.67004276  0.27178476    -0.83100
H1183       H  0.00589744  0.59104155  0.33903264    -0.06800
O1184       O  0.06337761  0.69549594  0.35651011    -0.88300
H1185       H  0.07351574  0.73896830  0.35056472    -0.06600
H1186       H  0.09155369  0.62988251  0.38851319    -0.06800
C1187       C  0.06370044  0.71547886  0.34464153     0.86800
C1188       C  0.02288211  0.60902872  0.32873540     0.87400
C1189       C  0.08312810  0.64325442  0.38010678     0.87400
H1190       H  0.16849928  0.74830780  0.32805599    -0.06800
O1191       O  0.12112142  0.70658106  0.28873137    -0.75800
Mg1192     Mg  0.10111281  0.71027779  0.37907131     1.58000
H1193       H  0.08359453  0.70876855  0.27777699    -0.06800
C1194       C  0.47166823  0.65906718  0.33467865     0.92400
O1195       O  0.01888514  0.66833657  0.39560477    -0.83000
C1196       C  0.03904901  0.68296310  0.41017939     0.92500
O1197       O  0.03480404  0.61435763  0.26408644    -0.83000
Mg1198     Mg  0.15112235  0.68834185  0.30401771     1.58200
O1199       O  0.98582113  0.66090952  0.35191300    -0.81300
O1200       O  0.19228280  0.68035753  0.35109649    -0.83000
C1201       C  0.17189906  0.60220065  0.18580379     0.02000
C1202       C  0.17339276  0.57446477  0.18672421     0.02000
C1203       C  0.18432462  0.56532246  0.16877778    -0.18500
C1204       C  0.19329444  0.58294129  0.14990149     0.02000
C1205       C  0.19155952  0.61038638  0.14901964     0.02000
C1206       C  0.18118648  0.61980933  0.16691265    -0.18500
H1207       H  0.18056811  0.64125814  0.16615717     0.04000
H1208       H  0.18523280  0.54402243  0.16936070     0.04000
C1209       C  0.44326674  0.58555946  0.18279604     0.02000
C1210       C  0.41547997  0.55664772  0.18161634     0.02000
C1211       C  0.39857935  0.54769582  0.16227599    -0.18500
C1212       C  0.40844868  0.56724377  0.14412336     0.02000
C1213       C  0.43546592  0.59714919  0.14584749     0.02000
C1214       C  0.45275071  0.60559436  0.16511153    -0.18500
H1215       H  0.47367175  0.62811870  0.16642945     0.04000
H1216       H  0.37722044  0.52550370  0.16143472     0.04000
O1217       O  0.14449805  0.95056986  0.33767778    -0.88600
C1218       C  0.06997111  0.92646878  0.37792528     0.87400
Mg1219     Mg  0.14983865  0.97322930  0.30747126     1.58100
O1220       O  0.06765023  0.86359594  0.34983400    -0.88300
O1221       O  0.14169066  0.90823944  0.35018310    -0.75700
C1222       C  0.01172487  0.89045308  0.25835877     0.92500
O1223       O  0.10595317  0.98681512  0.34409650    -0.75500
O1224       O  0.03424886  0.91836419  0.25942816    -0.83000
Mg1225     Mg  0.13377254  0.97092431  0.36492247     1.58000
C1226       C  0.48137513  0.80083620  0.32038921     0.92400
O1227       O  0.16224996  0.96091085  0.38857166    -0.81300
H1228       H  0.08549071  0.83630143  0.34304444    -0.06600
C1229       C  0.01707367  0.89952709  0.32292722     0.87300
O1230       O  0.12927946  0.92693391  0.28903562    -0.75800
O1231       O  0.09323313  0.92636177  0.37084711    -0.88500
O1232       O  0.99380375  0.81127864  0.33855225    -0.81300
C1233       C  0.03678705  0.84101907  0.40298783     0.92500
C1234       C  0.15988699  0.94089241  0.40214145     0.92400
Mg1235     Mg  0.03764396  0.86101398  0.29672792     1.58000
O1236       O  0.00885041  0.87052484  0.27229590    -0.81300
O1237       O  0.06537199  0.84499705  0.31754736    -0.75500
O1238       O  0.06503015  0.86281331  0.40118437    -0.81300
O1239       O  0.17689155  0.51667899  0.36010132    -0.83100
O1240       O  0.10794583  0.96941864  0.26055312    -0.81400
C1241       C  0.07308112  0.84760800  0.33726169     0.86800
O1242       O  0.07852734  0.90535320  0.29056733    -0.88500
O1243       O  0.02738836  0.88154416  0.32430271    -0.88600
O1244       O  0.02987146  0.92332280  0.31095965    -0.75700
Mg1245     Mg  0.10164615  0.88776677  0.37467207     1.58000
O1246       O  0.01735064  0.83406512  0.38751231    -0.83100
H1247       H  0.17477033  0.93697101  0.32907413    -0.06800
O1248       O  0.10403571  0.96817780  0.31188485    -0.88300
H1249       H  0.08585296  0.99523958  0.31845642    -0.06600
H1250       H  0.09958312  0.88605743  0.27447558    -0.06800
C1251       C  0.09835072  0.98408534  0.32435646     0.86800
C1252       C  0.15475329  0.93251098  0.33871852     0.87400
C1253       C  0.10211956  0.90530164  0.28412661     0.87400
H1254       H  0.99709431  0.89529963  0.33252987    -0.06800
O1255       O  0.04264181  0.90487925  0.37343366    -0.75800
Mg1256     Mg  0.07027352  0.94393073  0.28656064     1.58000
H1257       H  0.07294152  0.94572655  0.38775637    -0.06800
C1258       C  0.18892251  0.53224578  0.34312122     0.92400
O1259       O  0.15482960  0.99763278  0.27569820    -0.83000
C1260       C  0.13628407  0.99141674  0.25984358     0.92500
O1261       O  0.13763973  0.91294480  0.40115607    -0.83000
Mg1262     Mg  0.02219300  0.85877506  0.35495457     1.58200
O1263       O  0.17798429  0.52150018  0.32440489    -0.81300
O1264       O  0.49215133  0.81588625  0.30302623    -0.83000
O1265       O  0.31159185  0.85931360  0.34314181    -0.88600
C1266       C  0.36984214  0.93707726  0.37946978     0.87400
Mg1267     Mg  0.32499561  0.85245211  0.31169254     1.58100
O1268       O  0.30680832  0.93985261  0.35564878    -0.88300
O1269       O  0.27539096  0.86626245  0.35814237    -0.75700
C1270       C  0.37761691  0.98578442  0.26083748     0.92500
O1271       O  0.38835221  0.89566180  0.34460681    -0.75500
O1272       O  0.38149039  0.96255523  0.26263019    -0.83000
Mg1273     Mg  0.34728274  0.87152236  0.36788696     1.58000
C1274       C  0.32447327  0.52282555  0.32583931     0.92400
O1275       O  0.31257552  0.84650085  0.39439471    -0.81300
H1276       H  0.26102839  0.92396564  0.35256672    -0.06600
C1277       C  0.38995370  0.98597197  0.32530270     0.87300
O1278       O  0.29826088  0.87403981  0.29546149    -0.75800
O1279       O  0.34575220  0.91375316  0.37339023    -0.88500
O1280       O  0.32619725  0.01273132  0.34348243    -0.81300
C1281       C  0.32033456  0.97169344  0.40815881     0.92500
C1282       C  0.29840168  0.85214542  0.40921484     0.92400
Mg1283     Mg  0.32781800  0.96661645  0.30212923     1.58000
O1284       O  0.36359181  0.99224337  0.27536554    -0.81300
O1285       O  0.28616108  0.94211395  0.32524614    -0.75500
O1286       O  0.32086463  0.94647593  0.40672384    -0.81300
O1287       O  0.34828721  0.82648860  0.36218604    -0.83100
O1288       O  0.35162965  0.89139186  0.26458710    -0.81400
C1289       C  0.28374377  0.93499170  0.34501442     0.86800
O1290       O  0.32839963  0.92437213  0.29703450    -0.88500
O1291       O  0.36219610  0.97838642  0.32772321    -0.88600
O1292       O  0.39826239  0.97068671  0.31321210    -0.75700
Mg1293     Mg  0.30056424  0.90796064  0.38106603     1.58000
O1294       O  0.32841075  0.99022045  0.39220075    -0.83100
H1295       H  0.26613610  0.83086591  0.33761654    -0.06800
O1296       O  0.36603520  0.89721843  0.31492718    -0.88300
H1297       H  0.41179765  0.91238563  0.31654180    -0.06600
H1298       H  0.28639148  0.90442684  0.28298565    -0.06800
C1299       C  0.38959989  0.90191306  0.32478553     0.86800
C1300       C  0.28377665  0.85103814  0.34609137     0.87400
C1301       C  0.30377511  0.90131968  0.29138539     0.87400
H1302       H  0.40758954  0.00565509  0.33418548    -0.06800
O1303       O  0.37451033  0.96419775  0.37581748    -0.75800
Mg1304     Mg  0.37303136  0.92939271  0.28985148     1.58000
H1305       H  0.38736601  0.93437925  0.38802764    -0.06800
C1306       C  0.34799501  0.81324474  0.34455287     0.92400
O1307       O  0.34265342  0.84702110  0.27886739    -0.83000
C1308       C  0.35105519  0.86567484  0.26304815     0.92500
O1309       O  0.29340667  0.87475691  0.40811484    -0.83000
Mg1310     Mg  0.34721436  0.98493910  0.35909457     1.58200
O1311       O  0.34456067  0.82302306  0.32635323    -0.81300
O1312       O  0.32766476  0.51155662  0.30827556    -0.83000
C1313       C  0.43283143  0.85184908  0.18229135     0.02000
C1314       C  0.40328935  0.84977064  0.18377388     0.02000
C1315       C  0.38411583  0.84134421  0.16559631    -0.18500
C1316       C  0.39287903  0.83361865  0.14623362     0.02000
C1317       C  0.42075053  0.83236022  0.14503628     0.02000
C1318       C  0.44099714  0.84239357  0.16303640    -0.18500
H1319       H  0.46302675  0.84270118  0.16210761     0.04000
H1320       H  0.36159013  0.84004111  0.16662633     0.04000
O1321       O  0.21882743  0.52607255  0.00550634    -0.88600
C1322       C  0.24220816  0.97677771  0.04737692     0.87400
Mg1323     Mg  0.19142384  0.50613816  0.97677598     1.58100
O1324       O  0.30474829  0.53197279  0.01495476    -0.88300
O1325       O  0.26325891  0.56487907  0.01669511    -0.75700
C1326       C  0.26033886  0.94025803  0.92936053     0.92500
O1327       O  0.17711949  0.95233798  0.01802438    -0.75500
O1328       O  0.23366472  0.93802211  0.93063635    -0.83000
Mg1329     Mg  0.19899499  0.99938660  0.03561131     1.58000
C1330       C  0.36124357  0.50221481  0.98372638     0.92400
O1331       O  0.21662850  0.54386724  0.05514906    -0.81300
H1332       H  0.33236870  0.57537518  0.00470256    -0.06600
C1333       C  0.25896709  0.94212328  0.99390885     0.87300
O1334       O  0.23563713  0.52646760  0.95588314    -0.75800
O1335       O  0.24273760  0.99966309  0.03932660    -0.88500
O1336       O  0.35297161  0.50591539  0.00246328    -0.81300
C1337       C  0.33075744  0.52472599  0.06744870     0.92500
C1338       C  0.23599783  0.55448352  0.07066849     0.92400
Mg1339     Mg  0.29744119  0.49529945  0.96393670     1.58000
O1340       O  0.27919240  0.95047527  0.94513209    -0.81300
O1341       O  0.31897054  0.54263534  0.98122063    -0.75500
O1342       O  0.30942152  0.53193806  0.06643037    -0.81300
O1343       O  0.15302693  0.99951980  0.03200847    -0.83100
O1344       O  0.18554128  0.96102994  0.93315661    -0.81400
C1345       C  0.31941337  0.55099179  0.00066010     0.86800
O1346       O  0.25401396  0.49506640  0.95970273    -0.88500
O1347       O  0.27866957  0.97002939  0.99330969    -0.88600
O1348       O  0.23369852  0.93090663  0.98317494    -0.75700
Mg1349     Mg  0.28437899  0.54502086  0.04083670     1.58000
O1350       O  0.33685634  0.51246162  0.05152277    -0.83100
H1351       H  0.23446321  0.56957105  0.99562352    -0.06800
O1352       O  0.19152507  0.96314877  0.98438865    -0.88300
H1353       H  0.16328700  0.91976060  0.99441067    -0.06600
H1354       H  0.27420829  0.53195781  0.94035477    -0.06800
C1355       C  0.17655887  0.94408977  0.99856605     0.86800
C1356       C  0.23839342  0.55402745  0.00553435     0.87400
C1357       C  0.25542150  0.51818251  0.95138044     0.87400
H1358       H  0.26310934  0.92694813  0.00407204    -0.06800
O1359       O  0.26273247  0.96949618  0.04267592    -0.75800
Mg1360     Mg  0.21178329  0.94958876  0.95878388     1.58000
H1361       H  0.22374259  0.96248150  0.05846813    -0.06800
C1362       C  0.13563337  0.99384811  0.01559791     0.92400
O1363       O  0.16011859  0.98306062  0.94741030    -0.83000
C1364       C  0.16480293  0.96904162  0.93188636     0.92500
O1365       O  0.26255475  0.55647959  0.06915011    -0.83000
Mg1366     Mg  0.30680240  0.99059801  0.02129899     1.58200
O1367       O  0.14387208  0.99020479  0.99682421    -0.81300
O1368       O  0.34351599  0.49566675  0.96744751    -0.83000
O1369       O  0.27890979  0.80949241  0.99329998    -0.88600
C1370       C  0.27485072  0.73926397  0.95557319     0.87400
Mg1371     Mg  0.29631017  0.81565045  0.02571838     1.58100
O1372       O  0.20296959  0.72487083  0.97633566    -0.88300
O1373       O  0.23570458  0.79823775  0.97636213    -0.75700
C1374       C  0.22499018  0.67790640  0.06965022     0.92500
O1375       O  0.32728730  0.78235181  0.99255763    -0.75500
O1376       O  0.25100372  0.70285265  0.06925517    -0.83000
Mg1377     Mg  0.30819178  0.80431601  0.96921100     1.58000
C1378       C  0.14058653  0.63750494  0.00028029     0.92400
O1379       O  0.29709769  0.82843836  0.94177988    -0.81300
H1380       H  0.16895399  0.73544997  0.97753917    -0.06600
C1381       C  0.24471868  0.68457208  0.00737106     0.87300
O1382       O  0.24658085  0.78763538  0.03952325    -0.75800
O1383       O  0.26929360  0.75990765  0.96106835    -0.87900
O1384       O  0.15526344  0.64977359  0.98301322    -0.81300
C1385       C  0.19247698  0.69676617  0.92436504     0.92500
C1386       C  0.27731037  0.82024714  0.92648036     0.92400
Mg1387     Mg  0.19361810  0.69465642  0.02819110     1.58000
O1388       O  0.20493072  0.67010594  0.05462727    -0.81300
O1389       O  0.17520604  0.71749800  0.00512734    -0.75500
O1390       O  0.21634984  0.72355110  0.92601872    -0.81300
O1391       O  0.34905624  0.85060541  0.97877445    -0.83100
O1392       O  0.28574705  0.77434242  0.07169940    -0.81400
C1393       C  0.18168501  0.72608848  0.98575519     0.86800
O1394       O  0.23292441  0.73871884  0.03636733    -0.88500
O1395       O  0.22264002  0.68913960  0.00426864    -0.88600
O1396       O  0.26681036  0.70128250  0.02023195    -0.75700
Mg1397     Mg  0.22701403  0.75940738  0.95241882     1.58000
O1398       O  0.18440015  0.67758390  0.93968654    -0.83100
H1399       H  0.25617918  0.83268956  0.99857204    -0.06800
O1400       O  0.29942064  0.77458437  0.02132863    -0.88300
H1401       H  0.33426950  0.76520270  0.02028432    -0.06600
H1402       H  0.20504368  0.75236545  0.04989408    -0.06800
C1403       C  0.32105030  0.77394767  0.01197800     0.86800
C1404       C  0.25727745  0.81454582  0.98968444     0.87400
C1405       C  0.22722535  0.75906023  0.04236278     0.87400
H1406       H  0.24587031  0.66664162  0.99823790    -0.06800
O1407       O  0.25522769  0.71077528  0.95859544    -0.75800
Mg1408     Mg  0.27536914  0.73934925  0.04466159     1.58000
H1409       H  0.29709808  0.74560489  0.94828542    -0.06800
C1410       C  0.35985896  0.86201498  0.99726194     0.92400
O1411       O  0.31736418  0.82112509  0.05884148    -0.83000
C1412       C  0.30922181  0.80131479  0.07384294     0.92500
O1413       O  0.25143376  0.79513144  0.92703638    -0.83000
Mg1414     Mg  0.20524548  0.68321169  0.97225526     1.58200
O1415       O  0.34567222  0.84967323  0.01466096    -0.81300
O1416       O  0.15162278  0.64856418  0.01880513    -0.83000
O1417       O  0.02650928  0.71823880  0.99688425    -0.88600
C1418       C  0.46783705  0.72499582  0.95215457     0.87400
Mg1419     Mg  0.01223726  0.70144074  0.02951563     1.58100
O1420       O  0.02622966  0.79540699  0.97596059    -0.88300
O1421       O  0.06311368  0.75774518  0.97962866    -0.75700
C1422       C  0.44731332  0.78108514  0.06827928     0.92500
O1423       O  0.45246742  0.67550137  0.99200160    -0.75500
O1424       O  0.44431569  0.75409992  0.06941163    -0.83000
Mg1425     Mg  0.49571343  0.69047756  0.97063375     1.58000
C1426       C  0.99782104  0.85774913  0.99694352     0.92400
O1427       O  0.03285663  0.69695410  0.94543811    -0.81300
H1428       H  0.07095583  0.82604785  0.98208264    -0.06600
C1429       C  0.43913788  0.75833288  0.00445072     0.87300
O1430       O  0.03432190  0.75051701  0.04344719    -0.75800
O1431       O  0.49336701  0.72976920  0.95881307    -0.88500
O1432       O  0.99710820  0.84329246  0.97990482    -0.81300
C1433       C  0.01486994  0.80907299  0.92225652     0.92500
C1434       C  0.04662150  0.71535408  0.92969855     0.92400
Mg1435     Mg  0.99812235  0.80466159  0.02790550     1.58000
O1436       O  0.46050812  0.79866105  0.05209713    -0.81300
O1437       O  0.04162965  0.81942849  0.00693642    -0.75500
O1438       O  0.02325649  0.78880919  0.92443484    -0.81300
O1439       O  0.49859820  0.64930527  0.98323030    -0.83100
O1440       O  0.47024514  0.70630551  0.07434265    -0.81400
C1441       C  0.04716628  0.81427707  0.98785533     0.86800
O1442       O  0.99956851  0.76488033  0.03965168    -0.88500
O1443       O  0.46692822  0.77730850  0.00141213    -0.88600
O1444       O  0.43069514  0.73775057  0.01891700    -0.75700
Mg1445     Mg  0.03862023  0.77021566  0.95325709     1.58000
O1446       O  0.99984666  0.81390267  0.93691627    -0.83100
H1447       H  0.07166047  0.73604636  0.00409960    -0.06800
O1448       O  0.46772413  0.70009333  0.02280807    -0.88300
H1449       H  0.42311844  0.66886165  0.01685026    -0.06600
H1450       H  0.04019859  0.79142033  0.05462723    -0.06800
C1451       C  0.44687723  0.68086111  0.01102162     0.86800
C1452       C  0.05438012  0.73696528  0.99395739     0.87400
C1453       C  0.02502331  0.76976051  0.04651170     0.87400
H1454       H  0.42166041  0.75887797  0.99430409    -0.06800
O1455       O  0.45890571  0.74459398  0.95505300    -0.75800
Mg1456     Mg  0.45521744  0.72548312  0.04543989     1.58000
H1457       H  0.45236631  0.70324077  0.94424817    -0.06800
C1458       C  0.49804166  0.63889244  0.00201012     0.92400
O1459       O  0.49568254  0.68313977  0.06191384    -0.83000
C1460       C  0.48046304  0.68743983  0.07670787     0.92500
O1461       O  0.04993295  0.74242600  0.92920420    -0.83000
Mg1462     Mg  0.48123396  0.79401078  0.96885190     1.58200
O1463       O  0.49813266  0.65317097  0.01898246    -0.81300
O1464       O  0.99674383  0.84690415  0.01565441    -0.83000
O1465       O  0.13207000  0.52192694  0.66880977    -0.88600
C1466       C  0.19553903  0.58881526  0.70951388     0.87400
Mg1467     Mg  0.14654903  0.51788173  0.63664891     1.58100
O1468       O  0.13994125  0.60499107  0.68747761    -0.88300
O1469       O  0.09878962  0.53178904  0.68521936    -0.75700
C1470       C  0.21578250  0.65811355  0.59527945     0.92500
O1471       O  0.20638632  0.54740962  0.67218631    -0.75500
O1472       O  0.21645705  0.63296935  0.59525511    -0.83000
Mg1473     Mg  0.16311716  0.52402462  0.69406132     1.58000
C1474       C  0.16877893  0.69450738  0.66600270     0.92400
O1475       O  0.12535682  0.49845553  0.72042207    -0.81300
H1476       H  0.09563629  0.59484738  0.68393801    -0.06600
C1477       C  0.22482192  0.64756782  0.65918713     0.87300
O1478       O  0.12568388  0.54657908  0.62279899    -0.75800
O1479       O  0.16950793  0.56853317  0.70322589    -0.88500
O1480       O  0.16639792  0.67937190  0.68301999    -0.81300
C1481       C  0.15528732  0.62989682  0.74141612     0.92500
C1482       C  0.11455247  0.50708138  0.73601470     0.92400
Mg1483     Mg  0.16669076  0.63959512  0.63646995     1.58000
O1484       O  0.20502828  0.66603740  0.61124065    -0.81300
O1485       O  0.12322837  0.61529059  0.65795776    -0.75500
O1486       O  0.15097387  0.60278981  0.73852526    -0.81300
O1487       O  0.15518478  0.97736772  0.68370723    -0.83100
O1488       O  0.18366671  0.56179878  0.59130472    -0.81400
C1489       C  0.11867910  0.60475895  0.67697225     0.86800
O1490       O  0.16121617  0.59545500  0.62673381    -0.88500
O1491       O  0.19781242  0.64220738  0.66173666    -0.88600
O1492       O  0.23132720  0.63247505  0.64564442    -0.75700
Mg1493     Mg  0.12744556  0.56908758  0.71066251     1.58000
O1494       O  0.16638763  0.64984867  0.72652029    -0.83100
H1495       H  0.08650847  0.49916395  0.66177663    -0.06800
O1496       O  0.19061528  0.55886187  0.64270057    -0.88300
H1497       H  0.23448178  0.56771024  0.64638527    -0.06600
H1498       H  0.12016471  0.58224019  0.61251253    -0.06800
C1499       C  0.21143558  0.55832320  0.65325930     0.86800
C1500       C  0.10508285  0.51661311  0.67157289     0.87400
C1501       C  0.13528702  0.57528327  0.62022548     0.87400
H1502       H  0.24322003  0.66492810  0.66914240    -0.06800
O1503       O  0.20479208  0.61751430  0.70720491    -0.75800
Mg1504     Mg  0.20389586  0.59552005  0.61978649     1.58000
H1505       H  0.21095384  0.58198996  0.71692946    -0.06800
C1506       C  0.16037236  0.96942873  0.66533865     0.92400
O1507       O  0.16302119  0.51369229  0.60328436    -0.83000
C1508       C  0.17588961  0.53352813  0.58838128     0.92500
O1509       O  0.11463180  0.53252582  0.73545477    -0.83000
Mg1510     Mg  0.18346444  0.64611894  0.69365425     1.58200
O1511       O  0.16314967  0.48428022  0.64767934    -0.81300
O1512       O  0.17276383  0.68592017  0.64750109    -0.83000
C1513       C  0.10708607  0.66689424  0.85359404     0.02000
C1514       C  0.07917614  0.66812171  0.85358126     0.02000
C1515       C  0.06096213  0.65968962  0.83455722    -0.18500
C1516       C  0.07078614  0.65077593  0.81578387     0.02000
C1517       C  0.09905815  0.65027957  0.81629734     0.02000
C1518       C  0.11653489  0.65791142  0.83513355    -0.18500
H1519       H  0.13828306  0.65750747  0.83529445     0.04000
H1520       H  0.03945628  0.66045658  0.83427523     0.04000
C1521       C  0.05878147  0.90027640  0.85385282     0.02000
C1522       C  0.08771218  0.92844534  0.85459349     0.02000
C1523       C  0.09770058  0.94796213  0.83641924    -0.18500
C1524       C  0.07928507  0.93995430  0.81773545     0.02000
C1525       C  0.04991064  0.91261897  0.81753789     0.02000
C1526       C  0.04014423  0.89292537  0.83534718    -0.18500
H1527       H  0.01802305  0.87140839  0.83463819     0.04000
H1528       H  0.12005587  0.96922087  0.83673054     0.04000
O1529       O  0.47317062  0.61077159  0.66996064    -0.88600
C1530       C  0.40804256  0.60433230  0.71336958     0.87400
Mg1531     Mg  0.47539767  0.62928478  0.63800802     1.58100
O1532       O  0.39412661  0.53414991  0.68972682    -0.88300
O1533       O  0.46818556  0.56981607  0.68629537    -0.75700
C1534       C  0.33221127  0.55554103  0.59877637     0.92500
O1535       O  0.44516639  0.65635524  0.67564295    -0.75500
O1536       O  0.35671945  0.58208714  0.59860292    -0.83000
Mg1537     Mg  0.47211260  0.63891753  0.69613343     1.58000
C1538       C  0.30378906  0.97318613  0.66837894     0.92400
O1539       O  0.50127840  0.62905874  0.72100827    -0.81300
H1540       H  0.40686373  0.50265595  0.68327074    -0.06600
C1541       C  0.34611915  0.57322922  0.66261879     0.87300
O1542       O  0.44778266  0.58040716  0.62342576    -0.75800
O1543       O  0.42907756  0.59967467  0.70707128    -0.88500
O1544       O  0.31985084  0.98572816  0.68520604    -0.81300
C1545       C  0.36839583  0.52081450  0.74385897     0.92500
C1546       C  0.49543141  0.61030835  0.73664138     0.92400
Mg1547     Mg  0.35614048  0.52627262  0.63830798     1.58000
O1548       O  0.32671796  0.53635754  0.61405629    -0.81300
O1549       O  0.38390469  0.50975786  0.65882853    -0.75500
O1550       O  0.39726142  0.54075705  0.74167342    -0.81300
O1551       O  0.01816578  0.68034388  0.68424306    -0.83100
O1552       O  0.42902091  0.62544854  0.59363681    -0.81400
C1553       C  0.39531414  0.51493366  0.67772040     0.86800
O1554       O  0.39846940  0.56595239  0.62754210    -0.88500
O1555       O  0.35418039  0.55357115  0.66447880    -0.88600
O1556       O  0.35915039  0.59510832  0.64914693    -0.75700
Mg1557     Mg  0.43139639  0.55803714  0.71281508     1.58000
O1558       O  0.34905588  0.51528968  0.72879121    -0.83100
H1559       H  0.49861757  0.59127091  0.66179284    -0.06800
O1560       O  0.43354642  0.63092012  0.64520077    -0.88300
H1561       H  0.42238989  0.66367963  0.65118427    -0.06600
H1562       H  0.41239705  0.53968061  0.61209054    -0.06800
C1563       C  0.43334879  0.65091358  0.65689045     0.86800
C1564       C  0.48095555  0.59094757  0.67223175     0.87400
C1565       C  0.41904630  0.56118704  0.62045113     0.87400
H1566       H  0.32817835  0.57226155  0.67308572    -0.06800
O1567       O  0.37941196  0.58464716  0.71028606    -0.75800
Mg1568     Mg  0.39580180  0.60753719  0.62258892     1.58000
H1569       H  0.41418177  0.62605234  0.72123541    -0.06800
C1570       C  0.02521447  0.69278306  0.66567749     0.92400
O1571       O  0.47799836  0.65002009  0.60521121    -0.83000
C1572       C  0.45781006  0.64496694  0.59079393     0.92500
O1573       O  0.47053251  0.58400839  0.73712410    -0.83000
Mg1574     Mg  0.35192820  0.53531434  0.69614963     1.58200
O1575       O  0.50857798  0.67920648  0.64875226    -0.81300
O1576       O  0.31112290  0.98623114  0.65004981    -0.83000
O1577       O  0.35640741  0.80531840  0.66095732    -0.88600
C1578       C  0.42758611  0.85128957  0.61821708     0.87400
Mg1579     Mg  0.34987693  0.82817267  0.68814001     1.58100
O1580       O  0.43469698  0.79679052  0.65057194    -0.88300
O1581       O  0.36050349  0.76528022  0.65079336    -0.75700
C1582       C  0.48501617  0.89015373  0.73584207     0.92500
O1583       O  0.38812744  0.87674666  0.64667776    -0.75500
O1584       O  0.46102487  0.89300669  0.73410522    -0.83000
Mg1585     Mg  0.36186680  0.82794551  0.63103634     1.58000
C1586       C  0.02218939  0.82740894  0.68149944     0.92400
O1587       O  0.33382573  0.78110406  0.61455679    -0.81300
H1588       H  0.41917802  0.75369742  0.66129506    -0.06600
C1589       C  0.48184104  0.88735056  0.67090449     0.87300
O1590       O  0.37188175  0.80683394  0.71008718    -0.75800
O1591       O  0.40552792  0.82842961  0.62664584    -0.88500
O1592       O  0.50861553  0.82148088  0.66242491    -0.81300
C1593       C  0.46585164  0.80253476  0.59713309     0.92500
C1594       C  0.34198372  0.77333188  0.59740192     0.92400
Mg1595     Mg  0.46531157  0.83473575  0.70118506     1.58000
O1596       O  0.49363943  0.87935289  0.72041416    -0.81300
O1597       O  0.43910938  0.78707513  0.68432590    -0.75500
O1598       O  0.43715837  0.79421318  0.59944243    -0.81300
O1599       O  0.31534574  0.82599261  0.63554545    -0.83100
O1600       O  0.39097651  0.87108053  0.73182202    -0.81400
C1601       C  0.43069649  0.77817494  0.66504080     0.86800
O1602       O  0.42208579  0.83564169  0.70523111    -0.88500
O1603       O  0.47253031  0.85925138  0.67156757    -0.88600
O1604       O  0.46857684  0.89934211  0.68162075    -0.75700
Mg1605     Mg  0.40030674  0.78296107  0.62544639     1.58000
O1606       O  0.48537984  0.81576545  0.61242896    -0.83100
H1607       H  0.32881504  0.76280917  0.67275983    -0.06800
O1608       O  0.39426293  0.86801971  0.68036678    -0.88300
H1609       H  0.40926706  0.91084187  0.66917597    -0.06600
H1610       H  0.40400028  0.79976401  0.72556446    -0.06800
C1611       C  0.39767819  0.88627071  0.66574160     0.86800
C1612       C  0.34768453  0.77734238  0.66200727     0.87400
C1613       C  0.39975998  0.81362899  0.71417381     0.87400
H1614       H  0.50145183  0.90201351  0.66072663    -0.06800
O1615       O  0.45564134  0.85893614  0.62247516    -0.75800
Mg1616     Mg  0.42798611  0.88152223  0.70597074     1.58000
H1617       H  0.42293029  0.86531912  0.60724716    -0.06800
C1618       C  0.30654112  0.83654003  0.65091619     0.92400
O1619       O  0.34376840  0.85224552  0.71762427    -0.83000
C1620       C  0.36283592  0.86515455  0.73312836     0.92500
O1621       O  0.36651930  0.77124641  0.59733724    -0.83000
Mg1622     Mg  0.47888375  0.83783032  0.64336354     1.58200
O1623       O  0.32210851  0.84607207  0.66839120    -0.81300
O1624       O  0.01174920  0.83490843  0.69776584    -0.83000
C1625       C  0.31026321  0.89249922  0.84855928     0.02000
C1626       C  0.30750600  0.91928906  0.84972079     0.02000
C1627       C  0.31658557  0.93949864  0.83224144    -0.18500
C1628       C  0.32833958  0.93337798  0.81343735     0.02000
C1629       C  0.32975126  0.90567566  0.81177867     0.02000
C1630       C  0.32033294  0.88537948  0.82941407    -0.18500
H1631       H  0.32071326  0.86384369  0.82827947     0.04000
H1632       H  0.31512458  0.96047435  0.83345721     0.04000
C1633       C  0.00592402  0.73681762  0.48101690     0.02000
C1634       C  0.00621770  0.76538574  0.48052794     0.02000
C1635       C  0.00101962  0.77707265  0.49980190    -0.18500
C1636       C  0.49587689  0.75847869  0.51870689     0.02000
C1637       C  0.49300748  0.72868361  0.51813600     0.02000
C1638       C  0.99889678  0.72006484  0.50020172    -0.18500
H1639       H  0.99785073  0.69776208  0.50028547     0.04000
H1640       H  0.00219243  0.79940679  0.49967558     0.04000
C1641       C  0.23591485  0.74526601  0.48179857     0.02000
C1642       C  0.26519426  0.77272560  0.48325086     0.02000
C1643       C  0.28447407  0.77790356  0.50111069    -0.18500
C1644       C  0.27453802  0.75645339  0.51787865     0.02000
C1645       C  0.24473320  0.72970087  0.51705314     0.02000
C1646       C  0.22569564  0.72399549  0.49886894    -0.18500
H1647       H  0.20304451  0.70314621  0.49803490     0.04000
H1648       H  0.30701361  0.79889686  0.50211751     0.04000
C1649       C  0.23314176  0.98868590  0.47958859     0.02000
C1650       C  0.26498447  0.99772522  0.48234362     0.02000
C1651       C  0.27944933  0.01049737  0.50220509    -0.18500
C1652       C  0.26223134  0.51192962  0.51929657     0.02000
C1653       C  0.23104987  0.50486165  0.51622093     0.02000
C1654       C  0.21690642  0.99377474  0.49619060    -0.18500
H1655       H  0.19277763  0.98763153  0.49374924     0.04000
H1656       H  0.30347012  0.01638775  0.50476346     0.04000
O1657       O  0.04042826  0.98357759  0.98933299    -0.88600
C1658       C  0.46896152  0.94504084  0.03005577     0.87400
Mg1659     Mg  0.07604891  0.53310290  0.99177276     1.58100
O1660       O  0.44987951  0.96237524  0.97907945    -0.88300
O1661       O  0.50793493  0.95480312  0.96362625    -0.75700
C1662       C  0.99817549  0.60896554  0.00442373     0.92500
O1663       O  0.04172596  0.99841965  0.04011719    -0.75500
O1664       O  0.02306082  0.61011570  0.01118452    -0.83000
Mg1665     Mg  0.03044690  0.95651171  0.01844204     1.58000
C1666       C  0.39071895  0.00312622  0.98113561     0.92400
O1667       O  0.02080160  0.91114205  0.00311879    -0.81300
H1668       H  0.44433322  0.95618926  0.94721174    -0.06600
C1669       C  0.46362796  0.52444458  0.02793955     0.87300
O1670       O  0.05071696  0.54731052  0.96716708    -0.75800
O1671       O  0.48333261  0.94642576  0.01343691    -0.88500
O1672       O  0.39125627  0.97802917  0.98413673    -0.81300
C1673       C  0.38865827  0.89157623  0.99841972     0.92500
C1674       C  0.99786641  0.88704702  0.99520122     0.92400
Mg1675     Mg  0.46685644  0.54112817  0.98057789     1.58000
O1676       O  0.47580501  0.58559727  0.99667016    -0.81300
O1677       O  0.45581441  0.49964966  0.95853439    -0.75500
O1678       O  0.41427076  0.89217383  0.99506506    -0.81300
O1679       O  0.08082129  0.96788530  0.01944127    -0.83100
O1680       O  0.08569383  0.60794275  0.00248410    -0.81400
C1681       C  0.44943044  0.97166846  0.96077834     0.86800
O1682       O  0.01518628  0.55269206  0.98443365    -0.88500
O1683       O  0.45741718  0.51394120  0.00945751    -0.88600
O1684       O  0.99148369  0.54410624  0.03399030    -0.75700
Mg1685     Mg  0.46235707  0.92653869  0.98216733     1.58000
O1686       O  0.38683152  0.91587577  0.00138186    -0.83100
H1687       H  0.05271663  0.98230599  0.95883655    -0.06800
O1688       O  0.05010864  0.53762003  0.01835418    -0.88300
H1689       H  0.05663967  0.54430109  0.05012479    -0.06600
H1690       H  0.02316749  0.56167615  0.95300590    -0.06800
C1691       C  0.05093283  0.52855331  0.03665228     0.86800
C1692       C  0.03441007  0.97326112  0.97080169     0.87400
C1693       C  0.02948732  0.55454998  0.96769793     0.87400
H1694       H  0.44550082  0.51537184  0.04003333    -0.06800
O1695       O  0.44781386  0.95241265  0.03027474    -0.75800
Mg1696     Mg  0.03692303  0.57299900  0.01530901     1.58000
H1697       H  0.47517562  0.93823306  0.04493187    -0.06800
C1698       C  0.10588057  0.99360238  0.01733480     0.92400
O1699       O  0.11245212  0.58366320  0.99545542    -0.83000
C1700       C  0.11117943  0.60820147  0.99889267     0.92500
O1701       O  0.47482086  0.88847837  0.98600743    -0.83000
Mg1702     Mg  0.42287968  0.96628416  0.00517427     1.58200
O1703       O  0.10807158  0.52067493  0.01152715    -0.81300
O1704       O  0.41617644  0.52923609  0.98003383    -0.83000
O1705       O  0.37035871  0.64997250  0.31706242    -0.88600
C1706       C  0.30848127  0.61191237  0.36779158     0.87400
Mg1707     Mg  0.40867365  0.69716636  0.31572117     1.58100
O1708       O  0.27998427  0.63011926  0.32117796    -0.88300
O1709       O  0.33016962  0.61718701  0.29806010    -0.75700
C1710       C  0.34821826  0.78377914  0.34459509     0.92500
O1711       O  0.38559335  0.66742836  0.36742534    -0.75500
O1712       O  0.37371973  0.78366516  0.34688151    -0.83000
Mg1713     Mg  0.36678635  0.62407875  0.34610930     1.58000
C1714       C  0.23081296  0.67723610  0.33122536     0.92400
O1715       O  0.34996404  0.57675479  0.32974451    -0.81300
H1716       H  0.26939639  0.62513190  0.28981396    -0.06600
C1717       C  0.31287655  0.69633271  0.36902348     0.87300
O1718       O  0.38048117  0.71341310  0.29598679    -0.75800
O1719       O  0.31889084  0.61372635  0.34945666    -0.88500
O1720       O  0.22973226  0.65169044  0.33492093    -0.81300
C1721       C  0.21879972  0.56182079  0.34445105     0.92500
C1722       C  0.32426176  0.55212848  0.32559589     0.92400
Mg1723     Mg  0.30561451  0.71208417  0.32312809     1.58000
O1724       O  0.32257947  0.75924078  0.34011225    -0.81300
O1725       O  0.28704522  0.66907560  0.30110736    -0.75500
O1726       O  0.24346559  0.56098543  0.33978701    -0.81300
O1727       O  0.41739127  0.63471712  0.34191092    -0.83100
O1728       O  0.42829823  0.77322843  0.32847346    -0.81400
C1729       C  0.27814668  0.64053523  0.30356440     0.86800
O1730       O  0.35282254  0.72207503  0.31936013    -0.88500
O1731       O  0.30076560  0.68464413  0.35153084    -0.88600
O1732       O  0.34160831  0.71668341  0.37048575    -0.75700
Mg1733     Mg  0.28917097  0.59220862  0.32155219     1.58000
O1734       O  0.21943138  0.58719409  0.34857582    -0.83100
H1735       H  0.37326730  0.64443871  0.28541599    -0.06800
O1736       O  0.39249401  0.70541279  0.34640222    -0.88300
H1737       H  0.40459583  0.71203765  0.37748941    -0.06600
H1738       H  0.35248957  0.73081719  0.28800366    -0.06800
C1739       C  0.39508739  0.69589221  0.36417349     0.86800
C1740       C  0.35881427  0.63747047  0.29967177     0.87400
C1741       C  0.36172056  0.72287656  0.30070049     0.87400
H1742       H  0.29882358  0.68876848  0.38346142    -0.06800
O1743       O  0.28827349  0.61987642  0.37172071    -0.75800
Mg1744     Mg  0.38292780  0.74288118  0.34703009     1.58000
H1745       H  0.31710835  0.60386857  0.38080937    -0.06800
C1746       C  0.44215681  0.65910835  0.33601114     0.92400
O1747       O  0.44982876  0.74652543  0.31518790    -0.83000
C1748       C  0.45137462  0.77192331  0.32048776     0.92500
O1749       O  0.29872826  0.55205149  0.32304717    -0.83000
Mg1750     Mg  0.26147136  0.63701126  0.35088028     1.58200
O1751       O  0.44208761  0.68319662  0.32956509    -0.81300
O1752       O  0.25615014  0.70231608  0.32778815    -0.83000
O1753       O  0.12208429  0.84505389  0.65521658    -0.88600
C1754       C  0.19246114  0.88627292  0.69960388     0.87400
Mg1755     Mg  0.08826409  0.79664004  0.65641284     1.58100
O1756       O  0.21571535  0.87250156  0.64863305    -0.88300
O1757       O  0.15656201  0.87781474  0.63275958    -0.75700
C1758       C  0.16699404  0.72290233  0.66756511     0.92500
O1759       O  0.11900028  0.82790512  0.70593792    -0.75500
O1760       O  0.14222331  0.72144492  0.67477831    -0.83000
Mg1761     Mg  0.12954860  0.87014566  0.68537167     1.58000
C1762       C  0.27626583  0.83530223  0.64981231     0.92400
O1763       O  0.13950288  0.91636039  0.67120300    -0.81300
H1764       H  0.22210070  0.88046474  0.61700077    -0.06600
C1765       C  0.20083898  0.80777991  0.69437420     0.87300
O1766       O  0.11484284  0.78439090  0.63154069    -0.75800
O1767       O  0.17863975  0.88449127  0.68266044    -0.88500
O1768       O  0.27508702  0.85900694  0.65612899    -0.81300
C1769       C  0.27548675  0.94290083  0.66989092     0.92500
C1770       C  0.16229770  0.94122357  0.66388671     0.92400
Mg1771     Mg  0.19976041  0.79440298  0.64631669     1.58000
O1772       O  0.18984582  0.74784411  0.66033057    -0.81300
O1773       O  0.21042284  0.83680689  0.62587587    -0.75500
O1774       O  0.24957867  0.94132423  0.66554620    -0.81300
O1775       O  0.07721782  0.85506120  0.68653533    -0.83100
O1776       O  0.07972591  0.72339075  0.66704468    -0.81400
C1777       C  0.21668108  0.86423939  0.63004959     0.86800
O1778       O  0.15066708  0.77991545  0.64900225    -0.88500
O1779       O  0.20742571  0.81968660  0.67638231    -0.88600
O1780       O  0.17343291  0.78656137  0.69883300    -0.75700
Mg1781     Mg  0.20136671  0.90644375  0.65225815     1.58000
O1782       O  0.27778904  0.91909284  0.67371099    -0.83100
H1783       H  0.11153133  0.84807280  0.62459150    -0.06800
O1784       O  0.11438968  0.79253130  0.68318484    -0.88300
H1785       H  0.10780955  0.78436570  0.71478428    -0.06600
H1786       H  0.14383288  0.77177533  0.61737725    -0.06800
C1787       C  0.11317307  0.80061875  0.70176306     0.86800
C1788       C  0.12903358  0.85674497  0.63714912     0.87400
C1789       C  0.13669018  0.77806421  0.63212141     0.87400
H1790       H  0.21854844  0.81633282  0.70679121    -0.06800
O1791       O  0.21438227  0.88006407  0.70028366    -0.75800
Mg1792     Mg  0.12836713  0.75819614  0.67956232     1.58000
H1793       H  0.18510413  0.89238943  0.71432406    -0.06800
C1794       C  0.05282745  0.82914607  0.68240169     0.92400
O1795       O  0.05208556  0.74630221  0.65909521    -0.83000
C1796       C  0.05393466  0.72238996  0.66331841     0.92500
O1797       O  0.18714331  0.94279497  0.65676120    -0.83000
Mg1798     Mg  0.24137320  0.86820735  0.67557925     1.58200
O1799       O  0.05434238  0.80570950  0.67589418    -0.81300
O1800       O  0.25182980  0.80956619  0.64544355    -0.83000
C1801       C  0.37172538  0.88113631  0.77176264    -0.26600
C1802       C  0.35320110  0.87481511  0.75315492    -0.14700
C1803       C  0.32762795  0.88014994  0.75373639     0.36000
C1804       C  0.32062698  0.89042349  0.77301232    -0.26000
C1805       C  0.33899572  0.89629628  0.79155000    -0.15300
C1806       C  0.36506878  0.89195357  0.79084193     0.37100
N1807       N  0.38547035  0.89974109  0.80916602    -0.89500
H1808       H  0.39173042  0.87775427  0.77145510     0.18200
H1809       H  0.30072445  0.89396302  0.77360634     0.18200
N1810       N  0.30927577  0.87587205  0.73474003    -0.88600
H1811       H  0.40503630  0.89784345  0.80531026     0.35500
H1812       H  0.37364832  0.88332533  0.82113893     0.40600
H1813       H  0.32368567  0.89254503  0.72353903     0.40300
H1814       H  0.29112196  0.88028949  0.73805830     0.35100
C1815       C  0.33182529  0.75727780  0.55869438    -0.26600
C1816       C  0.32380456  0.76828108  0.57718497    -0.14700
C1817       C  0.30052816  0.77700787  0.57520250     0.36000
C1818       C  0.28629423  0.77454875  0.55540144    -0.26000
C1819       C  0.29407185  0.76321623  0.53730392    -0.15300
C1820       C  0.31703446  0.75459013  0.53884748     0.37100
N1821       N  0.32489687  0.74256509  0.52039334    -0.89500
H1822       H  0.34963800  0.75071070  0.55956776     0.18200
H1823       H  0.26836613  0.78095238  0.55420885     0.18200
N1824       N  0.29117547  0.78929702  0.59267097    -0.88600
H1825       H  0.32091482  0.72043661  0.52418761     0.35500
H1826       H  0.34875024  0.75674362  0.51744340     0.40600
H1827       H  0.28247203  0.77313685  0.60515857     0.40300
H1828       H  0.31060301  0.80992251  0.59770530     0.35100
C1829       C  0.50204139  0.79086392  0.57579301    -0.26600
C1830       C  0.47565542  0.79457303  0.57640659    -0.14700
C1831       C  0.45742366  0.78809434  0.55749438     0.36000
C1832       C  0.46484510  0.77673885  0.53904139    -0.26000
C1833       C  0.49028351  0.77165880  0.53873887    -0.15300
C1834       C  0.50972775  0.77974708  0.55722870     0.37100
N1835       N  0.53782493  0.77791996  0.55764947    -0.89500
H1836       H  0.51658252  0.79608505  0.58998801     0.18200
H1837       H  0.45023797  0.77137575  0.52485749     0.18200
N1838       N  0.43130118  0.79309444  0.55683607    -0.88600
H1839       H  0.53466420  0.76093136  0.56882063     0.35500
H1840       H  0.54241854  0.77125575  0.54277423     0.40600
H1841       H  0.41138353  0.77204407  0.55299989     0.40300
H1842       H  0.43503944  0.80877015  0.54446502     0.35100
C1843       C  0.31756782  0.96258627  0.78577309    -0.26600
C1844       C  0.33924639  0.95672432  0.79607294    -0.14700
C1845       C  0.37107507  0.97437519  0.79071764     0.36000
C1846       C  0.38039546  0.99663738  0.77431876    -0.26000
C1847       C  0.35848573  0.00151234  0.76307584    -0.15300
C1848       C  0.32662806  0.98438485  0.76926568     0.37100
N1849       N  0.30160899  0.48589996  0.75891523    -0.89500
H1850       H  0.29317655  0.94954185  0.79031373     0.18200
H1851       H  0.40479257  0.00940766  0.76979841     0.18200
N1852       N  0.39371729  0.96950488  0.80188746    -0.88600
H1853       H  0.29977590  0.98064341  0.74336765     0.35500
H1854       H  0.30754603  0.50920243  0.75949803     0.40600
H1855       H  0.39384542  0.97569010  0.81801136     0.40300
H1856       H  0.41612470  0.98420216  0.79591189     0.35100
C1857       C  0.29677342  0.55496388  0.54406072    -0.26600
C1858       C  0.27801022  0.52309710  0.54037829    -0.14700
C1859       C  0.27513965  0.50201346  0.55650192     0.36000
C1860       C  0.29136803  0.51330557  0.57604613    -0.26000
C1861       C  0.31103417  0.54530477  0.57967226    -0.15300
C1862       C  0.31323305  0.56626140  0.56348513     0.37100
N1863       N  0.33247514  0.59903927  0.56648747    -0.89500
H1864       H  0.29916378  0.57119159  0.53160687     0.18200
H1865       H  0.28978786  0.49685447  0.58805559     0.18200
N1866       N  0.25704644  0.46920652  0.55252278    -0.88600
H1867       H  0.31840455  0.60910323  0.56491240     0.35500
H1868       H  0.34907495  0.60760843  0.55416231     0.40600
H1869       H  0.23881493  0.96349538  0.54847627     0.40300
H1870       H  0.26524137  0.95914750  0.56253875     0.35100
C1871       C  0.44485324  0.67077376  0.56166680    -0.26600
C1872       C  0.46708618  0.66465165  0.57115124    -0.14700
C1873       C  0.49785575  0.67984790  0.56282724     0.36000
C1874       C  0.50558908  0.70084843  0.54583523    -0.26000
C1875       C  0.48363371  0.70775270  0.53701326    -0.15300
C1876       C  0.45260344  0.69190461  0.54473242     0.37100
N1877       N  0.42808873  0.69569769  0.53542845    -0.89500
H1878       H  0.42113101  0.65940954  0.56769139     0.18200
H1879       H  0.52911810  0.71205562  0.53945431     0.18200
N1880       N  0.52160537  0.67404482  0.57085407    -0.88600
H1881       H  0.42091011  0.70605254  0.54705991     0.35500
H1882       H  0.43567816  0.71036143  0.52212325     0.40600
H1883       H  0.51320839  0.65016857  0.57037994     0.40300
H1884       H  0.52684951  0.68192437  0.58673986     0.35100
C1885       C  0.01643994  0.92185624  0.79245230    -0.26600
C1886       C  0.02990833  0.90391449  0.79821656    -0.14700
C1887       C  0.02707033  0.88017436  0.78445747     0.36000
C1888       C  0.01271566  0.87634472  0.76436881    -0.26000
C1889       C  0.00086028  0.89554679  0.75793725    -0.15300
C1890       C  0.00233532  0.91828743  0.77225306     0.37100
N1891       N  0.99022414  0.93806106  0.76608355    -0.89500
H1892       H  0.01804176  0.93950850  0.80347159     0.18200
H1893       H  0.52053646  0.86687416  0.74905380     0.18200
N1894       N  0.03840539  0.85989112  0.79103888    -0.88600
H1895       H  0.99327650  0.95356691  0.77850797     0.35500
H1896       H  0.00353924  0.95147008  0.75310272     0.40600
H1897       H  0.06257297  0.87311888  0.79284927     0.40300
H1898       H  0.54894380  0.85525527  0.77229867     0.35100
C1899       C  0.03695324  0.65243779  0.76073641    -0.26600
C1900       C  0.01654845  0.62063017  0.75679443    -0.14700
C1901       C  0.51833206  0.59903296  0.76973474     0.36000
C1902       C  0.03148345  0.60979287  0.79186759    -0.26000
C1903       C  0.05146118  0.64146694  0.79581062    -0.15300
C1904       C  0.05430310  0.66311085  0.77995057     0.37100
N1905       N  0.07406045  0.69599981  0.78283664    -0.89500
H1906       H  0.03889400  0.66940901  0.74903891     0.18200
H1907       H  0.02933159  0.59303772  0.80382247     0.18200
N1908       N  0.50318364  0.56671443  0.76408025    -0.88600
H1909       H  0.09130882  0.70383489  0.77095865     0.35500
H1910       H  0.08553570  0.70140703  0.79766416     0.40600
H1911       H  0.50649412  0.55400800  0.77612708     0.40300
H1912       H  0.51414183  0.56467675  0.75026499     0.35100
C1913       C  0.11257782  0.96712911  0.76160592    -0.26600
C1914       C  0.10270962  0.98856451  0.75710263    -0.14700
C1915       C  0.08645978  0.49340726  0.77204973     0.36000
C1916       C  0.08195075  0.98102724  0.79372012    -0.26000
C1917       C  0.09112828  0.95908868  0.79789066    -0.15300
C1918       C  0.10697873  0.95232264  0.78164972     0.37100
N1919       N  0.11830494  0.93108535  0.78497578    -0.89500
H1920       H  0.12545998  0.96223195  0.74960396     0.18200
H1921       H  0.06956697  0.98596218  0.80609579     0.18200
N1922       N  0.07351247  0.51307478  0.76772297    -0.88600
H1923       H  0.10662143  0.91264680  0.77418409     0.35500
H1924       H  0.11354356  0.92182663  0.80047517     0.40600
H1925       H  0.06140033  0.51439042  0.78112215     0.40300
H1926       H  0.05707811  0.50264604  0.75539086     0.35100
C1927       C  0.12828256  0.61276566  0.77673883    -0.26600
C1928       C  0.14448010  0.63696160  0.76187515    -0.14700
C1929       C  0.14619058  0.66587212  0.76556268     0.36000
C1930       C  0.12998733  0.66908414  0.78300816    -0.26000
C1931       C  0.11276818  0.64444540  0.79705253    -0.15300
C1932       C  0.11263795  0.61634077  0.79438445     0.37100
N1933       N  0.09691411  0.59174487  0.80972283    -0.89500
H1934       H  0.12706526  0.59062210  0.77434705     0.18200
H1935       H  0.13133539  0.69116973  0.78600547     0.18200
N1936       N  0.16412866  0.69181605  0.75163014    -0.88600
H1937       H  0.09945241  0.57273792  0.80560587     0.35500
H1938       H  0.07308379  0.58419295  0.80881690     0.40600
H1939       H  0.18759348  0.69820073  0.75353261     0.40300
H1940       H  0.16222237  0.71098103  0.75636672     0.35100
C1941       C  0.20564775  0.54850365  0.55386061    -0.26600
C1942       C  0.18509195  0.52473004  0.56778040    -0.14700
C1943       C  0.17750719  0.49392609  0.56309482     0.36000
C1944       C  0.19188825  0.48789417  0.54567684    -0.26000
C1945       C  0.21410256  0.51202594  0.53292524    -0.15300
C1946       C  0.22011530  0.54259679  0.53653302     0.37100
N1947       N  0.24113503  0.56831084  0.52330874    -0.89500
H1948       H  0.21168624  0.57230931  0.55688631     0.18200
H1949       H  0.18633851  0.46426808  0.54249429     0.18200
N1950       N  0.15579732  0.46871245  0.57619289    -0.88600
H1951       H  0.22824210  0.57735108  0.51618456     0.35500
H1952       H  0.25013179  0.56134135  0.51065030     0.40600
H1953       H  0.16724309  0.45761669  0.58251357     0.40300
H1954       H  0.13769492  0.45290153  0.56628863     0.35100
C1955       C  0.21189248  0.69649734  0.57190428    -0.26600
C1956       C  0.22466296  0.67716947  0.57537853    -0.14700
C1957       C  0.24214082  0.67357973  0.55869681     0.36000
C1958       C  0.24614442  0.68914332  0.53907863    -0.26000
C1959       C  0.23356243  0.70856906  0.53580389    -0.15300
C1960       C  0.21600022  0.71212422  0.55241544     0.37100
N1961       N  0.20295416  0.73217089  0.55046282    -0.89500
H1962       H  0.19804473  0.69920679  0.58433993     0.18200
H1963       H  0.26026289  0.68715571  0.52651123     0.18200
N1964       N  0.25613164  0.65455812  0.56176563    -0.88600
H1965       H  0.17869566  0.71832244  0.55146387     0.35500
H1966       H  0.20767667  0.74304708  0.53550609     0.40600
H1967       H  0.27303574  0.66493208  0.57382414     0.40300
H1968       H  0.26786150  0.65416894  0.54785482     0.35100
C1969       C  0.00797260  0.84437789  0.89740209    -0.26600
C1970       C  0.02499866  0.82973838  0.90307417    -0.14700
C1971       C  0.05391095  0.83917744  0.89252415     0.36000
C1972       C  0.06475356  0.86253624  0.87689526    -0.26000
C1973       C  0.04775160  0.87718617  0.87154757    -0.15300
C1974       C  0.01908936  0.86788400  0.88185060     0.37100
N1975       N  0.00152855  0.88283216  0.87686787    -0.89500
H1976       H  0.98615653  0.83806127  0.90544776     0.18200
H1977       H  0.08665200  0.86928380  0.86881866     0.18200
N1978       N  0.57067357  0.82391656  0.89554758    -0.88600
H1979       H  0.99872067  0.89252328  0.89106701     0.35500
H1980       H  0.97943037  0.86590574  0.87154407     0.40600
H1981       H  0.55739668  0.80022579  0.89215318     0.40300
H1982       H  0.57688442  0.82716539  0.91183239     0.35100
C1983       C  0.03986772  0.67179005  0.90579374    -0.26600
C1984       C  0.05654934  0.70373160  0.91064698    -0.14700
C1985       C  0.08038482  0.72375109  0.89629219     0.36000
C1986       C  0.08706210  0.71134586  0.87790005    -0.26000
C1987       C  0.07000190  0.67957002  0.87297380    -0.15300
C1988       C  0.04602149  0.65951254  0.88719026     0.37100
N1989       N  0.02730705  0.62670583  0.88333564    -0.89500
H1990       H  0.02115548  0.65609956  0.91631138     0.18200
H1991       H  0.10560089  0.72666419  0.86712463     0.18200
N1992       N  0.09815268  0.75650852  0.90048770    -0.88600
H1993       H  0.03114793  0.61531354  0.89606118     0.35500
H1994       H  0.03394855  0.61994789  0.86930777     0.40600
H1995       H  0.08366139  0.76571793  0.89730982     0.40300
H1996       H  0.11670666  0.76728362  0.88964637     0.35100
C1997       C  0.31684582  0.85519466  0.90003063    -0.26600
C1998       C  0.28555581  0.83923312  0.90673879    -0.14700
C1999       C  0.26251321  0.83932257  0.89343489     0.36000
C2000       C  0.27108538  0.85528898  0.87387713    -0.26000
C2001       C  0.30239077  0.87190553  0.86745339    -0.15300
C2002       C  0.32563767  0.87155702  0.88058298     0.37100
N2003       N  0.35816148  0.88728192  0.87481442    -0.89500
H2004       H  0.33467782  0.85464461  0.90984710     0.18200
H2005       H  0.25323463  0.85556468  0.86391728     0.18200
N2006       N  0.23049496  0.82408856  0.89999641    -0.88600
H2007       H  0.37063341  0.90354017  0.88684789     0.35500
H2008       H  0.36244023  0.89966777  0.86052244     0.40600
H2009       H  0.21715350  0.80835728  0.88792015     0.40300
H2010       H  0.22359424  0.84077807  0.90100900     0.35100
C2011       C  0.15665703  0.70240857  0.87174331    -0.26600
C2012       C  0.12771533  0.67509654  0.87242939    -0.14700
C2013       C  0.12085075  0.65389761  0.88926869     0.36000
C2014       C  0.14294648  0.66092949  0.90560284    -0.26000
C2015       C  0.17201974  0.68854789  0.90520849    -0.15300
C2016       C  0.17889167  0.70932386  0.88789887     0.37100
N2017       N  0.20827124  0.73748509  0.88658970    -0.89500
H2018       H  0.16217177  0.71823712  0.85836088     0.18200
H2019       H  0.13715573  0.64482714  0.91881853     0.18200
N2020       N  0.09165440  0.62522343  0.88955939    -0.88600
H2021       H  0.20388219  0.75593237  0.88619013     0.35500
H2022       H  0.21891806  0.73734333  0.87207137     0.40600
H2023       H  0.09124687  0.61210443  0.87625089     0.40300
H2024       H  0.09006055  0.61232119  0.90323615     0.35100
C2025       C  0.15528906  0.95109838  0.89355589    -0.26600
C2026       C  0.14511980  0.96020514  0.91195615    -0.14700
C2027       C  0.11553524  0.95826398  0.91130934     0.36000
C2028       C  0.09730312  0.94761169  0.89241903    -0.26000
C2029       C  0.10758556  0.93842426  0.87424191    -0.15300
C2030       C  0.13700637  0.94016560  0.87486992     0.37100
N2031       N  0.14872058  0.93009625  0.85724567    -0.89500
H2032       H  0.17762882  0.95197675  0.89370993     0.18200
H2033       H  0.07476635  0.94629546  0.89186358     0.18200
N2034       N  0.10371683  0.96647453  0.92983992    -0.88600
H2035       H  0.16833494  0.94962031  0.85109468     0.35500
H2036       H  0.13260727  0.92040585  0.84470970     0.40600
H2037       H  0.09947885  0.95011751  0.94181151     0.40300
H2038       H  0.08218092  0.96468491  0.92639519     0.35100
C2039       C  0.30301155  0.94254791  0.90689428    -0.26600
C2040       C  0.27112185  0.93314951  0.90890036    -0.14700
C2041       C  0.25154639  0.92052119  0.89068064     0.36000
C2042       C  0.26411191  0.91746215  0.87114151    -0.26000
C2043       C  0.29580971  0.92658952  0.86949329    -0.15300
C2044       C  0.31540003  0.93949471  0.88740691     0.37100
N2045       N  0.34798307  0.94961802  0.88581553    -0.89500
H2046       H  0.31877042  0.95291391  0.92040616     0.18200
H2047       H  0.24891216  0.90715402  0.85734706     0.18200
N2048       N  0.21896862  0.91059293  0.89188145    -0.88600
H2049       H  0.35845671  0.44763224  0.89582761     0.35500
H2050       H  0.36043519  0.97332028  0.88934955     0.40600
H2051       H  0.20640721  0.88710940  0.88770015     0.40300
H2052       H  0.21408161  0.92297677  0.88045881     0.35100
C2053       C  0.43386555  0.83502791  0.10572761    -0.26600
C2054       C  0.42793612  0.81940507  0.12546249    -0.14700
C2055       C  0.42595597  0.79010408  0.12586135     0.36000
C2056       C  0.43083684  0.77757659  0.10694545    -0.26000
C2057       C  0.43768157  0.79345277  0.08715779    -0.15300
C2058       C  0.43849820  0.82239210  0.08659186     0.37100
N2059       N  0.44405194  0.83898449  0.06667940    -0.89500
H2060       H  0.43460226  0.85713709  0.10524000     0.18200
H2061       H  0.42992432  0.75541815  0.10794281     0.18200
N2062       N  0.41849195  0.77225988  0.14523724    -0.88600
H2063       H  0.44449626  0.85999167  0.06913171     0.35500
H2064       H  0.42507055  0.82567214  0.05654210     0.40600
H2065       H  0.39711814  0.76878078  0.15100594     0.40300
H2066       H  0.43568720  0.78487137  0.15672985     0.35100
C2067       C  0.35194475  0.79447248  0.12250485    -0.26600
C2068       C  0.37135091  0.82562680  0.12784901    -0.14700
C2069       C  0.36930002  0.84886413  0.11633098     0.36000
C2070       C  0.34805867  0.84036654  0.09918635    -0.26000
C2071       C  0.32864285  0.80908855  0.09353860    -0.15300
C2072       C  0.33078286  0.78584779  0.10533400     0.37100
N2073       N  0.31238516  0.75368147  0.09944761    -0.89500
H2074       H  0.35369834  0.77687074  0.13161355     0.18200
H2075       H  0.34688421  0.85826468  0.09005754     0.18200
N2076       N  0.38943272  0.88098974  0.12172006    -0.88600
H2077       H  0.31630427  0.73983851  0.11017143     0.35500
H2078       H  0.32021610  0.75088396  0.08441165     0.40600
H2079       H  0.38313695  0.88477919  0.13702039     0.40300
H2080       H  0.38577567  0.89519845  0.11117167     0.35100
C2081       C  0.31958955  0.00922295  0.43525231    -0.26600
C2082       C  0.30864121  0.97842227  0.42857647    -0.14700
C2083       C  0.28448063  0.95416164  0.44081398     0.36000
C2084       C  0.27194347  0.96111980  0.45874901    -0.26000
C2085       C  0.28234721  0.99176276  0.46504024    -0.15300
C2086       C  0.30674794  0.01600351  0.45339610     0.37100
N2087       N  0.31767087  0.04754707  0.45945251    -0.89500
H2088       H  0.33781708  0.02814038  0.42616427     0.18200
H2089       H  0.25300561  0.94231658  0.46748625     0.18200
N2090       N  0.27085099  0.92215720  0.43490342    -0.88600
H2091       H  0.31461510  0.05884081  0.44630944     0.35500
H2092       H  0.34158045  0.05801907  0.46261766     0.40600
H2093       H  0.28778038  0.91554937  0.43616667     0.40300
H2094       H  0.26272906  0.91924947  0.41904775     0.35100
C2095       C  0.30712506  0.81816893  0.43380496    -0.26600
C2096       C  0.28984485  0.83281619  0.42878002    -0.14700
C2097       C  0.26624065  0.82976674  0.44296799     0.36000
C2098       C  0.25973771  0.81144848  0.46141573    -0.26000
C2099       C  0.27604768  0.79571936  0.46574254    -0.15300
C2100       C  0.30054974  0.79975329  0.45219378     0.37100
N2101       N  0.31861627  0.78517010  0.45716005    -0.89500
H2102       H  0.32601080  0.82117525  0.42338549     0.18200
H2103       H  0.24122587  0.80873433  0.47210958     0.18200
N2104       N  0.24821363  0.84436583  0.43844363    -0.88600
H2105       H  0.33598070  0.79072713  0.44559708     0.35500
H2106       H  0.30387184  0.76119372  0.45634645     0.40600
H2107       H  0.25054945  0.85872724  0.45147666     0.40300
H2108       H  0.22475768  0.82708955  0.43739592     0.35100
C2109       C  0.36548602  0.87758306  0.22452849    -0.26600
C2110       C  0.36211740  0.85902120  0.24253209    -0.14700
C2111       C  0.37303810  0.83764897  0.24117928     0.36000
C2112       C  0.38641975  0.83508650  0.22184597    -0.26000
C2113       C  0.39068368  0.85444670  0.20426577    -0.15300
C2114       C  0.38003734  0.87588241  0.20561666     0.37100
N2115       N  0.38408000  0.89586940  0.18775138    -0.89500
H2116       H  0.35744405  0.89420590  0.22534312     0.18200
H2117       H  0.39354201  0.81782866  0.22047153     0.18200
N2118       N  0.37130159  0.81917977  0.25944801    -0.88600
H2119       H  0.37469211  0.91011544  0.19125403     0.35500
H2120       H  0.40803276  0.91054081  0.18556526     0.40600
H2121       H  0.38658852  0.83422384  0.27116647     0.40300
H2122       H  0.37949001  0.80407696  0.25544875     0.35100
C2123       C  0.05175422  0.82200381  0.43554320    -0.26600
C2124       C  0.02786292  0.82219845  0.42326708    -0.14700
C2125       C  0.99660987  0.80341336  0.43011121     0.36000
C2126       C  0.49254998  0.77601447  0.44462427    -0.26000
C2127       C  0.01418869  0.78462339  0.46068262    -0.15300
C2128       C  0.04542867  0.80363796  0.45399303     0.37100
N2129       N  0.07144758  0.80546907  0.46564215    -0.89500
H2130       H  0.07588521  0.83604925  0.43063484     0.18200
H2131       H  0.46991708  0.75554819  0.44695989     0.18200
N2132       N  0.47347120  0.78601542  0.41059193    -0.88600
H2133       H  0.08207223  0.79643481  0.45569952     0.35500
H2134       H  0.06451142  0.79204731  0.47957533     0.40600
H2135       H  0.46695126  0.80301665  0.41100214     0.40300
H2136       H  0.45366285  0.76520270  0.41490281     0.35100
C2137       C  0.17363818  0.93321884  0.43933178    -0.26600
C2138       C  0.18199806  0.95154973  0.42063573    -0.14700
C2139       C  0.20954952  0.98122969  0.42111645     0.36000
C2140       C  0.22625351  0.99238095  0.44030162    -0.26000
C2141       C  0.21647401  0.97483468  0.45916157    -0.15300
C2142       C  0.19062313  0.94466638  0.45851534     0.37100
N2143       N  0.18154464  0.92568507  0.47738499    -0.89500
H2144       H  0.15306287  0.91037028  0.43941077     0.18200
H2145       H  0.24654530  0.01543628  0.44065900     0.18200
N2146       N  0.22126399  0.00087199  0.40260617    -0.88600
H2147       H  0.18217796  0.90548748  0.47373642     0.35500
H2148       H  0.15849397  0.91939377  0.48103436     0.40600
H2149       H  0.20605962  0.00888719  0.39849481     0.40300
H2150       H  0.22331335  0.98826856  0.38983185     0.35100
C2151       C  0.45656655  0.84137761  0.21399616    -0.26600
C2152       C  0.45482538  0.86326198  0.20091461    -0.14700
C2153       C  0.47189888  0.89501227  0.20686971     0.36000
C2154       C  0.48960792  0.90377523  0.22599580    -0.26000
C2155       C  0.49057176  0.88172954  0.23961468    -0.15300
C2156       C  0.47353108  0.84995678  0.23341328     0.37100
N2157       N  0.47363707  0.82631943  0.24660666    -0.89500
H2158       H  0.44345097  0.81712850  0.20941992     0.18200
H2159       H  0.50271194  0.92814496  0.23022903     0.18200
N2160       N  0.47194042  0.91897769  0.19397073    -0.88600
H2161       H  0.46223385  0.80479020  0.23882891     0.35500
H2162       H  0.46035813  0.82401810  0.26030996     0.40600
H2163       H  0.45882092  0.91002099  0.17993640     0.40300
H2164       H  0.49489626  0.93373760  0.18898353     0.35100
C2165       C  0.47514182  0.62880328  0.11829896    -0.26600
C2166       C  0.44657034  0.62051793  0.12824855    -0.14700
C2167       C  0.43114846  0.63706057  0.12308749     0.36000
C2168       C  0.44367201  0.66014944  0.10708479    -0.26000
C2169       C  0.47148451  0.66734109  0.09621882    -0.15300
C2170       C  0.48771117  0.65184673  0.10233280     0.37100
N2171       N  0.51685281  0.65944277  0.09228033    -0.89500
H2172       H  0.48759377  0.61695570  0.12295329     0.18200
H2173       H  0.43103963  0.67187751  0.10261675     0.18200
N2174       N  0.40352445  0.63122311  0.13460878    -0.88600
H2175       H  0.52560077  0.64577714  0.09846326     0.35500
H2176       H  0.53294815  0.68239142  0.09635022     0.40600
H2177       H  0.38567955  0.60915376  0.13033437     0.40300
H2178       H  0.39612959  0.64660040  0.12971991     0.35100
C2179       C  0.35712152  0.54600839  0.12558332    -0.26600
C2180       C  0.38905385  0.55580775  0.12419992    -0.14700
C2181       C  0.40106600  0.55224424  0.10445764     0.36000
C2182       C  0.38152245  0.54097672  0.08623197    -0.26000
C2183       C  0.34987955  0.53267313  0.08742051    -0.15300
C2184       C  0.33755673  0.53447783  0.10752371     0.37100
N2185       N  0.30500025  0.52415275  0.10978964    -0.89500
H2186       H  0.34730289  0.54760208  0.14082336     0.18200
H2187       H  0.39134241  0.53933499  0.07101161     0.18200
N2188       N  0.43279294  0.55919078  0.10296368    -0.88600
H2189       H  0.30307984  0.04358637  0.11562780     0.35500
H2190       H  0.29537719  0.00728442  0.12133077     0.40600
H2191       H  0.43273661  0.53898718  0.09823711     0.40300
H2192       H  0.44363824  0.57559078  0.09078174     0.35100
C2193       C  0.39544681  0.49300850  0.22282761    -0.26600
C2194       C  0.38925573  0.50571854  0.24124778    -0.14700
C2195       C  0.38973441  0.53427563  0.23931948     0.36000
C2196       C  0.39593786  0.54898979  0.21920753    -0.26000
C2197       C  0.40328836  0.53687419  0.20113955    -0.15300
C2198       C  0.40230814  0.50815572  0.20290986     0.37100
N2199       N  0.40832776  0.49390701  0.18485570    -0.89500
H2200       H  0.39449032  0.47081705  0.22375672     0.18200
H2201       H  0.39617903  0.57078257  0.21774312     0.18200
N2202       N  0.38113306  0.04651164  0.25669668    -0.88600
H2203       H  0.43016832  0.50946152  0.17846565     0.35500
H2204       H  0.39142951  0.48912470  0.17308093     0.40600
H2205       H  0.38146717  0.06690390  0.25221776     0.40300
H2206       H  0.39922878  0.05300183  0.26782779     0.35100
C2207       C  0.23084068  0.64224398  0.12156927    -0.26600
C2208       C  0.20021030  0.62922283  0.12925503    -0.14700
C2209       C  0.17787394  0.63281139  0.11745885     0.36000
C2210       C  0.18614975  0.64723001  0.09729825    -0.26000
C2211       C  0.21649827  0.65907607  0.08921384    -0.15300
C2212       C  0.23905341  0.65669345  0.10151773     0.37100
N2213       N  0.27013512  0.66847619  0.09356966    -0.89500
H2214       H  0.24844801  0.64096657  0.13113679     0.18200
H2215       H  0.16922407  0.65042410  0.08826210     0.18200
N2216       N  0.14750517  0.62317313  0.12634572    -0.88600
H2217       H  0.27449319  0.65001025  0.09258714     0.35500
H2218       H  0.28560617  0.68430206  0.10484761     0.40600
H2219       H  0.13570307  0.59921340  0.12834564     0.40300
H2220       H  0.13415964  0.62804439  0.11567556     0.35100
C2221       C  0.19395559  0.55150995  0.09436458    -0.26600
C2222       C  0.22599227  0.56242177  0.09123863    -0.14700
C2223       C  0.24673711  0.57762780  0.10853167     0.36000
C2224       C  0.23523362  0.58194700  0.12817925    -0.26000
C2225       C  0.20349380  0.57224273  0.13077766    -0.15300
C2226       C  0.18252131  0.55605455  0.11392511     0.37100
N2227       N  0.14960009  0.54370319  0.11688408    -0.89500
H2228       H  0.17750154  0.53890381  0.08158358     0.18200
H2229       H  0.25142567  0.59433716  0.14115029     0.18200
N2230       N  0.27954739  0.58938183  0.10617847    -0.88600
H2231       H  0.13722439  0.53133684  0.10322125     0.35500
H2232       H  0.14575267  0.56234963  0.11832107     0.40600
H2233       H  0.28654736  0.57955653  0.11823257     0.40300
H2234       H  0.29103838  0.61330565  0.10888268     0.35100
C2235       C  0.18506618  0.55040985  0.21756207    -0.26600
C2236       C  0.16277289  0.55378818  0.20573563    -0.14700
C2237       C  0.13086379  0.53571064  0.21127159     0.36000
C2238       C  0.12228565  0.51539671  0.22876573    -0.26000
C2239       C  0.14455437  0.51217067  0.24084371    -0.15300
C2240       C  0.17635993  0.52975620  0.23499975     0.37100
N2241       N  0.19965339  0.52637633  0.24656715    -0.89500
H2242       H  0.20941709  0.56383909  0.21299905     0.18200
H2243       H  0.09995609  0.00162216  0.23293676     0.18200
N2244       N  0.10640734  0.53643456  0.19921837    -0.88600
H2245       H  0.22186649  0.54113549  0.24031166     0.35500
H2246       H  0.19818683  0.00463512  0.24358777     0.40600
H2247       H  0.11482461  0.55049230  0.18564497     0.40300
H2248       H  0.09625645  0.54592686  0.20919134     0.35100
C2249       C  0.04159868  0.72200109  0.46379393    -0.26600
C2250       C  0.01436990  0.72394857  0.46239460    -0.14700
C2251       C  0.99389110  0.70995518  0.44496499     0.36000
C2252       C  0.00188090  0.69548292  0.42865506    -0.26000
C2253       C  0.02984002  0.69438258  0.42952227    -0.15300
C2254       C  0.04963238  0.70758323  0.44771157     0.37100
N2255       N  0.07786241  0.70661398  0.45059551    -0.89500
H2256       H  0.05680435  0.73180458  0.47765696     0.18200
H2257       H  0.98639459  0.68560103  0.41496378     0.18200
N2258       N  0.45817182  0.68551948  0.45379147    -0.88600
H2259       H  0.09384320  0.72009138  0.43874843     0.35500
H2260       H  0.07283151  0.68363794  0.44928372     0.40600
H2261       H  0.45344744  0.67636486  0.46934829     0.40300
H2262       H  0.44400458  0.66724257  0.44342689     0.35100
C2263       C  0.20831790  0.72417639  0.42403481    -0.26600
C2264       C  0.18532362  0.73289919  0.42260098    -0.14700
C2265       C  0.17890356  0.74554287  0.44112086     0.36000
C2266       C  0.19422547  0.74747647  0.46066870    -0.26000
C2267       C  0.21679263  0.73839396  0.46194703    -0.15300
C2268       C  0.22407275  0.72684258  0.44345299     0.37100
N2269       N  0.24758031  0.71796175  0.44449653    -0.89500
H2270       H  0.21347743  0.71434477  0.41011622     0.18200
H2271       H  0.18944293  0.75721450  0.47481974     0.18200
N2272       N  0.15713795  0.75666221  0.44004632    -0.88600
H2273       H  0.25053152  0.71026102  0.42946122     0.35500
H2274       H  0.23961366  0.69914916  0.45499308     0.40600
H2275       H  0.16645311  0.77560344  0.42959042     0.40300
H2276       H  0.15493376  0.76495640  0.45505831     0.35100
C2277       C  0.49491245  0.58791829  0.22864606    -0.26600
C2278       C  0.49176058  0.60758075  0.24349847    -0.14700
C2279       C  0.47378756  0.62145419  0.23748436     0.36000
C2280       C  0.45962277  0.61529880  0.21717419    -0.26000
C2281       C  0.46226693  0.59506966  0.20275146    -0.15300
C2282       C  0.48023167  0.58149388  0.20846819     0.37100
N2283       N  0.48378611  0.56132628  0.19370425    -0.89500
H2284       H  0.50904081  0.57757989  0.23263297     0.18200
H2285       H  0.44563973  0.62567016  0.21283638     0.18200
N2286       N  0.96952882  0.64155279  0.25123066    -0.88600
H2287       H  0.50757634  0.57084641  0.19047235     0.35500
H2288       H  0.47610677  0.54006462  0.20136485     0.40600
H2289       H  0.99177511  0.65986643  0.25495340     0.40300
H2290       H  0.95793473  0.63059167  0.26541012     0.35100
C2291       C  0.17964615  0.62315555  0.22322047    -0.26600
C2292       C  0.16191245  0.61430162  0.20428297    -0.14700
C2293       C  0.13670665  0.61984411  0.20236599     0.36000
C2294       C  0.12933580  0.63363359  0.21946802    -0.26000
C2295       C  0.14700446  0.64256799  0.23855904    -0.15300
C2296       C  0.17247425  0.63704258  0.24042102     0.37100
N2297       N  0.19053427  0.64471409  0.25993415    -0.89500
H2298       H  0.19932725  0.61934710  0.22452892     0.18200
H2299       H  0.10953135  0.63718650  0.21782105     0.18200
N2300       N  0.11831204  0.61115457  0.18309063    -0.88600
H2301       H  0.20885060  0.64005293  0.25835956     0.35500
H2302       H  0.17600150  0.63001662  0.27202025     0.40600
H2303       H  0.11929831  0.63102865  0.17670435     0.40300
H2304       H  0.09514870  0.59567138  0.18725607     0.35100
O2305       O  0.52852837  0.13539341  0.32961570    -0.88600
C2306       C  0.59329045  0.19635438  0.28582438     0.87400
Mg2307     Mg  0.52326701  0.14916596  0.36166222     1.58100
O2308       O  0.61212748  0.14376721  0.30983702    -0.88300
O2309       O  0.53804243  0.10222025  0.31301543    -0.75700
C2310       C  0.66453974  0.22269951  0.40252166     0.92500
O2311       O  0.55372053  0.20908938  0.32469513    -0.75500
O2312       O  0.63878443  0.22250135  0.40269466    -0.83000
Mg2313     Mg  0.52978203  0.16527188  0.30375752     1.58000
C2314       C  0.70231080  0.17743160  0.33243599     0.92400
O2315       O  0.50303872  0.12589170  0.27916641    -0.81300
H2316       H  0.60327384  0.10048914  0.31486401    -0.06600
C2317       C  0.65196749  0.22990210  0.33792523     0.87300
O2318       O  0.55366020  0.13082695  0.37623663    -0.75800
O2319       O  0.57411849  0.17107569  0.29349886    -0.88500
O2320       O  0.68824397  0.17631563  0.31511570    -0.81300
C2321       C  0.63782578  0.15467123  0.25678664     0.92500
C2322       C  0.51114001  0.11592915  0.26286718     0.92400
Mg2323     Mg  0.64611393  0.17345966  0.36135946     1.58000
O2324       O  0.67279650  0.21268090  0.38629728    -0.81300
O2325       O  0.62248410  0.12949797  0.34041019    -0.75500
O2326       O  0.60929348  0.14755753  0.25829454    -0.81300
O2327       O  0.98337447  0.15972733  0.31519543    -0.83100
O2328       O  0.56688718  0.18745588  0.40643654    -0.81400
C2329       C  0.61247489  0.12369313  0.32120444     0.86800
O2330       O  0.60182334  0.16721961  0.37106512    -0.88500
O2331       O  0.64709950  0.20321146  0.33539214    -0.88600
O2332       O  0.63711169  0.23622848  0.35186255    -0.75700
Mg2333     Mg  0.57490083  0.12896809  0.28692921     1.58000
O2334       O  0.65740049  0.17026771  0.27141611    -0.83100
H2335       H  0.50606031  0.09030442  0.33691425    -0.06800
O2336       O  0.56322924  0.19422210  0.35536132    -0.88300
H2337       H  0.57262833  0.23770040  0.35045021    -0.06600
H2338       H  0.59110916  0.12806153  0.38663654    -0.06800
C2339       C  0.56327519  0.21452823  0.34401262     0.86800
C2340       C  0.52323584  0.10861819  0.32691255     0.87400
C2341       C  0.58278778  0.14168727  0.37845674     0.87400
H2342       H  0.66882295  0.24819653  0.32775270    -0.06800
O2343       O  0.62239350  0.20711338  0.28817797    -0.75800
Mg2344     Mg  0.60061790  0.20877104  0.37809123     1.58000
H2345       H  0.58512308  0.20983824  0.27727538    -0.06800
C2346       C  0.97214288  0.15969207  0.33364854     0.92400
O2347       O  0.51855580  0.16678374  0.39427154    -0.83000
C2348       C  0.53874747  0.18091392  0.40892043     0.92500
O2349       O  0.53674285  0.11574849  0.26249258    -0.83000
Mg2350     Mg  0.65227328  0.18861987  0.30350424     1.58200
O2351       O  0.48614887  0.16037770  0.35059205    -0.81300
O2352       O  0.69232794  0.17937127  0.35089387    -0.83000
C2353       C  0.67111733  0.10047831  0.18584321     0.02000
C2354       C  0.67224098  0.07256361  0.18667162     0.02000
C2355       C  0.68200017  0.06279136  0.16847760    -0.18500
C2356       C  0.69029340  0.08007457  0.14947961     0.02000
C2357       C  0.68930090  0.10791138  0.14871724     0.02000
C2358       C  0.67995416  0.11787027  0.16684600    -0.18500
H2359       H  0.67973814  0.13952942  0.16618256     0.04000
H2360       H  0.68264111  0.04134698  0.16900048     0.04000
C2361       C  0.94209479  0.08390170  0.18339433     0.02000
C2362       C  0.91442746  0.05509732  0.18160089     0.02000
C2363       C  0.89814599  0.04666679  0.16202393    -0.18500
C2364       C  0.90842543  0.06687375  0.14420175     0.02000
C2365       C  0.93574624  0.09651092  0.14642269     0.02000
C2366       C  0.95245630  0.10428576  0.16591902    -0.18500
H2367       H  0.97348855  0.12664847  0.16763272     0.04000
H2368       H  0.87692889  0.02438328  0.16079011     0.04000
O2369       O  0.64371229  0.45086462  0.33743241    -0.88600
C2370       C  0.56965265  0.42571089  0.37824375     0.87400
Mg2371     Mg  0.64884085  0.47450235  0.30759946     1.58100
O2372       O  0.56724299  0.36348391  0.34908865    -0.88300
O2373       O  0.64136507  0.40847588  0.34938349    -0.75700
C2374       C  0.51155336  0.39120684  0.25803730     0.92500
O2375       O  0.60503582  0.48657359  0.34499265    -0.75500
O2376       O  0.53418906  0.41906706  0.25905110    -0.83000
Mg2377     Mg  0.63334400  0.47049076  0.36522985     1.58000
C2378       C  0.98135773  0.29997467  0.32045648     0.92400
O2379       O  0.66206930  0.45996085  0.38847436    -0.81300
H2380       H  0.58536725  0.33664690  0.34159537    -0.06600
C2381       C  0.51592577  0.39944907  0.32280429     0.87300
O2382       O  0.62855662  0.42880283  0.28835638    -0.75800
O2383       O  0.59285647  0.42576834  0.37088887    -0.88500
O2384       O  0.49312592  0.31146882  0.33782601    -0.81300
C2385       C  0.53649945  0.33997755  0.40228578     0.92500
C2386       C  0.65935320  0.43976669  0.40203658     0.92400
Mg2387     Mg  0.53701713  0.36208354  0.29631481     1.58000
O2388       O  0.50749063  0.37181359  0.27272253    -0.81300
O2389       O  0.56509569  0.34588105  0.31646598    -0.75500
O2390       O  0.56483767  0.36140913  0.40023616    -0.81300
O2391       O  0.67752909  0.01722200  0.36107672    -0.83100
O2392       O  0.60706179  0.47096308  0.26102324    -0.81400
C2393       C  0.57279447  0.34795715  0.33615485     0.86800
O2394       O  0.57783501  0.40666141  0.29041840    -0.88500
O2395       O  0.52688870  0.38201255  0.32421674    -0.88600
O2396       O  0.52830896  0.42326951  0.31082896    -0.75700
Mg2397     Mg  0.60137372  0.38718620  0.37396438     1.58000
O2398       O  0.51674515  0.33336204  0.38705592    -0.83100
H2399       H  0.67408586  0.43767327  0.32824375    -0.06800
O2400       O  0.60276706  0.46896597  0.31235419    -0.88300
H2401       H  0.58407736  0.49526789  0.32000119    -0.06600
H2402       H  0.59893446  0.38826166  0.27335374    -0.06800
C2403       C  0.59695667  0.48423150  0.32535416     0.86800
C2404       C  0.65413324  0.43291576  0.33806601     0.87400
C2405       C  0.60142488  0.40708334  0.28347345     0.87400
H2406       H  0.49566022  0.39464395  0.33227873    -0.06800
O2407       O  0.54229482  0.40430670  0.37362421    -0.75800
Mg2408     Mg  0.56919398  0.44483715  0.28671128     1.58000
H2409       H  0.57270032  0.44469824  0.38841375    -0.06800
C2410       C  0.68926688  0.03281357  0.34405685     0.92400
O2411       O  0.65379186  0.49972880  0.27619807    -0.83000
C2412       C  0.63526889  0.49318740  0.26029501     0.92500
O2413       O  0.63714174  0.41182688  0.40076306    -0.83000
Mg2414     Mg  0.52171414  0.35863286  0.35463740     1.58200
O2415       O  0.67781348  0.02236426  0.32541029    -0.81300
O2416       O  0.99276789  0.31477752  0.30311358    -0.83000
O2417       O  0.81049369  0.35787571  0.34379195    -0.88600
C2418       C  0.86742545  0.43514297  0.38017645     0.87400
Mg2419     Mg  0.82492454  0.35134497  0.31273865     1.58100
O2420       O  0.80494316  0.43809900  0.35553152    -0.88300
O2421       O  0.77360092  0.36441330  0.35805594    -0.75700
C2422       C  0.87677712  0.48391194  0.26123259     0.92500
O2423       O  0.88679983  0.39443453  0.34648881    -0.75500
O2424       O  0.88095607  0.46087869  0.26318081    -0.83000
Mg2425     Mg  0.84488437  0.36946963  0.36904753     1.58000
C2426       C  0.82345959  0.02210055  0.32563943     0.92400
O2427       O  0.80842157  0.34366158  0.39454488    -0.81300
H2428       H  0.75920954  0.42222935  0.35212028    -0.06600
C2429       C  0.88858100  0.48511980  0.32574862     0.87300
O2430       O  0.79798551  0.37241193  0.29617972    -0.75800
O2431       O  0.84331085  0.41169057  0.37427659    -0.88500
O2432       O  0.82478127  0.51149238  0.34348837    -0.81300
C2433       C  0.81808090  0.47005561  0.40806417     0.92500
C2434       C  0.79457518  0.34978486  0.40935420     0.92400
Mg2435     Mg  0.82680595  0.46515132  0.30223120     1.58000
O2436       O  0.86312369  0.49064838  0.27586096    -0.81300
O2437       O  0.78474516  0.44054472  0.32497656    -0.75500
O2438       O  0.81811650  0.44460145  0.40665385    -0.81300
O2439       O  0.84613089  0.32442544  0.36336804    -0.83100
O2440       O  0.85360340  0.39028016  0.26555278    -0.81400
C2441       C  0.78203562  0.43329987  0.34472905     0.86800
O2442       O  0.82778521  0.42284655  0.29731922    -0.88500
O2443       O  0.86067133  0.47690025  0.32805526    -0.88600
O2444       O  0.89740205  0.47005394  0.31389841    -0.75700
Mg2445     Mg  0.79811922  0.40610742  0.38108302     1.58000
O2446       O  0.82628116  0.48852593  0.39208243    -0.83100
H2447       H  0.76526765  0.32915840  0.33763814    -0.06800
O2448       O  0.86578111  0.39642700  0.31622228    -0.88300
H2449       H  0.91161995  0.41251536  0.31907601    -0.06600
H2450       H  0.78579119  0.40229092  0.28323579    -0.06800
C2451       C  0.88897267  0.40137643  0.32672440     0.86800
C2452       C  0.78253542  0.34937117  0.34628147     0.87400
C2453       C  0.80329108  0.39953905  0.29178161     0.87400
H2454       H  0.90588818  0.50515446  0.33452252    -0.06800
O2455       O  0.87217648  0.46220912  0.37615760    -0.75800
Mg2456     Mg  0.87294559  0.42834458  0.29080941     1.58000
H2457       H  0.88495665  0.43260464  0.38885871    -0.06800
C2458       C  0.84772873  0.31230258  0.34567260     0.92400
O2459       O  0.84204268  0.34526723  0.28008158    -0.83000
C2460       C  0.85070006  0.36350930  0.26405870     0.92500
O2461       O  0.79033691  0.37288046  0.40826230    -0.83000
Mg2462     Mg  0.84529695  0.48324124  0.35921324     1.58200
O2463       O  0.84569238  0.32295446  0.32745674    -0.81300
O2464       O  0.82771619  0.01135041  0.30823930    -0.83000
C2465       C  0.92806994  0.34334030  0.18396490     0.02000
C2466       C  0.89852297  0.34117760  0.18526788     0.02000
C2467       C  0.87962220  0.33335799  0.16704768    -0.18500
C2468       C  0.88868518  0.32602849  0.14769022     0.02000
C2469       C  0.91668030  0.32506610  0.14650403     0.02000
C2470       C  0.93663358  0.33450384  0.16463183    -0.18500
H2471       H  0.95874994  0.33499078  0.16369635     0.04000
H2472       H  0.85742986  0.33279438  0.16797159     0.04000
O2473       O  0.71788263  0.02632505  0.00532091    -0.88600
C2474       C  0.74063628  0.47443926  0.04703375     0.87400
Mg2475     Mg  0.69074211  0.00686082  0.97659061     1.58100
O2476       O  0.80381684  0.03174594  0.01535901    -0.88300
O2477       O  0.76248912  0.06470557  0.01670318    -0.75700
C2478       C  0.76145980  0.44171181  0.92909424     0.92500
O2479       O  0.67626456  0.45183618  0.01697344    -0.75500
O2480       O  0.73493078  0.43977468  0.93033699    -0.83000
Mg2481     Mg  0.69842068  0.49835807  0.03524081     1.58000
C2482       C  0.86037346  0.00161678  0.98431427     0.92400
O2483       O  0.71535012  0.04405874  0.05438404    -0.81300
H2484       H  0.83181724  0.07520837  0.00536358    -0.06600
C2485       C  0.75865366  0.44159629  0.99342463     0.87300
O2486       O  0.73511762  0.02693096  0.95582563    -0.75800
O2487       O  0.74171214  0.49773453  0.03926708    -0.88500
O2488       O  0.85214887  0.00548393  0.00304245    -0.81300
C2489       C  0.82929516  0.02465681  0.06795364     0.92500
C2490       C  0.73399464  0.05359164  0.07029826     0.92400
Mg2491     Mg  0.79674257  0.99538496  0.96434745     1.58000
O2492       O  0.78054689  0.45200641  0.94473683    -0.81300
O2493       O  0.81848962  0.04265794  0.98174789    -0.75500
O2494       O  0.80734672  0.03103047  0.06708268    -0.81300
O2495       O  0.65303433  0.49947345  0.03142432    -0.83100
O2496       O  0.68715835  0.46322165  0.93234124    -0.81400
C2497       C  0.81875948  0.05087246  0.00119763     0.86800
O2498       O  0.75337235  0.99550173  0.96006777    -0.88500
O2499       O  0.77870944  0.46940177  0.99335409    -0.88600
O2500       O  0.73364955  0.43116082  0.98246656    -0.75700
Mg2501     Mg  0.78292313  0.04444243  0.04106859     1.58000
O2502       O  0.83555133  0.01255142  0.05199774    -0.83100
H2503       H  0.73427901  0.06993249  0.99540360    -0.06800
O2504       O  0.69199504  0.46396686  0.98370901    -0.88300
H2505       H  0.66269400  0.42028791  0.99267478    -0.06600
H2506       H  0.77379753  0.03220852  0.94056769    -0.06800
C2507       C  0.67621596  0.44438593  0.99738390     0.86800
C2508       C  0.73777753  0.05418412  0.00540117     0.87400
C2509       C  0.75491872  0.01857301  0.95156651     0.87400
H2510       H  0.76221883  0.42582619  0.00334861    -0.06800
O2511       O  0.76123391  0.46716561  0.04256832    -0.75800
Mg2512     Mg  0.71270352  0.45095894  0.95819149     1.58000
H2513       H  0.72167702  0.45982377  0.05769800    -0.06800
C2514       C  0.63623750  0.49484268  0.01482987     0.92400
O2515       O  0.66162659  0.48493095  0.94692014    -0.83000
C2516       C  0.66620606  0.47099091  0.93129727     0.92500
O2517       O  0.76041861  0.05527573  0.06910077    -0.83000
Mg2518     Mg  0.80599099  0.48868013  0.02189374     1.58200
O2519       O  0.64484448  0.49170060  0.99606260    -0.81300
O2520       O  0.84270156  0.99530924  0.96800917    -0.83000
O2521       O  0.77923486  0.30936266  0.99400238    -0.88600
C2522       C  0.77418199  0.23947160  0.95542157     0.87400
Mg2523     Mg  0.79636391  0.31411878  0.02639467     1.58100
O2524       O  0.70218467  0.22510924  0.97631086    -0.88300
O2525       O  0.73593042  0.29857391  0.97739236    -0.75700
C2526       C  0.72237255  0.17601242  0.06952134     0.92500
O2527       O  0.82624056  0.28084454  0.99270509    -0.75500
O2528       O  0.74862262  0.20067064  0.06921281    -0.83000
Mg2529     Mg  0.80818000  0.30424738  0.96971161     1.58000
C2530       C  0.63962614  0.13746787  0.99957133     0.92400
O2531       O  0.79766481  0.32932269  0.94250657    -0.81300
H2532       H  0.66820708  0.23574690  0.97745910    -0.06600
C2533       C  0.74253840  0.18303718  0.00736158     0.87300
O2534       O  0.74632643  0.28683363  0.03986812    -0.75800
O2535       O  0.76885618  0.26020887  0.96105743    -0.87900
O2536       O  0.65451706  0.14994702  0.98242259    -0.81300
C2537       C  0.69171206  0.19747967  0.92406033     0.92500
C2538       C  0.77767917  0.32141575  0.92733858     0.92400
Mg2539     Mg  0.69201651  0.19403210  0.02798813     1.58000
O2540       O  0.70237611  0.16879091  0.05452108    -0.81300
O2541       O  0.67411200  0.21741589  0.00498016    -0.75500
O2542       O  0.71486541  0.22477140  0.92575343    -0.81300
O2543       O  0.84941436  0.35025957  0.97999044    -0.83100
O2544       O  0.78343583  0.27180729  0.07183954    -0.81400
C2545       C  0.68080681  0.22623379  0.98566694     0.86800
O2546       O  0.73152805  0.23764840  0.03644867    -0.88500
O2547       O  0.72129123  0.18878091  0.00410724    -0.88600
O2548       O  0.76464651  0.19904001  0.02037808    -0.75700
Mg2549     Mg  0.72666118  0.26020857  0.95284758     1.58000
O2550       O  0.68412621  0.17822214  0.93929831    -0.83100
H2551       H  0.75669138  0.33258762  0.99987430    -0.06800
O2552       O  0.79805023  0.27242454  0.02141502    -0.88300
H2553       H  0.83206945  0.26186846  0.01994037    -0.06600
H2554       H  0.70421322  0.25209075  0.04986425    -0.06800
C2555       C  0.81944200  0.27150223  0.01192109     0.86800
C2556       C  0.75764629  0.31458328  0.99069842     0.87400
C2557       C  0.72638062  0.25835564  0.04247607     0.87400
H2558       H  0.74296724  0.16471669  0.99824009    -0.06800
O2559       O  0.75447675  0.21102349  0.95846158    -0.75800
Mg2560     Mg  0.77344572  0.23719053  0.04475417     1.58000
H2561       H  0.79635416  0.24570297  0.94805561    -0.06800
C2562       C  0.86039900  0.36068819  0.99865395     0.92400
O2563       O  0.81696015  0.31814190  0.05944140    -0.83000
C2564       C  0.80764716  0.29810645  0.07433560     0.92500
O2565       O  0.75160508  0.29651249  0.92798546    -0.83000
Mg2566     Mg  0.70446721  0.18347191  0.97197860     1.58200
O2567       O  0.84630079  0.34739075  0.01586953    -0.81300
O2568       O  0.65024929  0.14833376  0.01819310    -0.83000
O2569       O  0.52647957  0.21982981  0.99540589    -0.88600
C2570       C  0.96981717  0.22608365  0.95283907     0.87400
Mg2571     Mg  0.51268508  0.20270979  0.02813034     1.58100
O2572       O  0.52528481  0.29638571  0.97430677    -0.88300
O2573       O  0.56231541  0.25911231  0.97745483    -0.75700
C2574       C  0.94780760  0.27926490  0.06916587     0.92500
O2575       O  0.95362942  0.17559994  0.99272687    -0.75500
O2576       O  0.94513162  0.25242564  0.07004508    -0.83000
Mg2577     Mg  0.99657247  0.19049194  0.97124589     1.58000
C2578       C  0.49838294  0.35919357  0.99608993     0.92400
O2579       O  0.53316341  0.19893114  0.94425989    -0.81300
H2580       H  0.57027292  0.32628769  0.98020616    -0.06600
C2581       C  0.94105074  0.25793157  0.00528045     0.87300
O2582       O  0.53459613  0.25159289  0.04235283    -0.75800
O2583       O  0.99502812  0.23048275  0.95987015    -0.88500
O2584       O  0.49660405  0.34436359  0.97901474    -0.81300
C2585       C  0.51227508  0.30984847  0.92101967     0.92500
C2586       C  0.54581106  0.21662220  0.92800932     0.92400
Mg2587     Mg  0.49863543  0.30573333  0.02676136     1.58000
O2588       O  0.96150035  0.29740761  0.05333748    -0.81300
O2589       O  0.54156336  0.31987733  0.00540319    -0.75500
O2590       O  0.52014178  0.28911275  0.92275705    -0.81300
O2591       O  0.99842669  0.14842510  0.98351739    -0.83100
O2592       O  0.97217563  0.20571573  0.07504784    -0.81400
C2593       C  0.54658083  0.31484842  0.98616067     0.86800
O2594       O  0.49976355  0.26573960  0.03833996    -0.88500
O2595       O  0.96879662  0.27731523  0.00251075    -0.88600
O2596       O  0.93262808  0.23707162  0.01954974    -0.75700
Mg2597     Mg  0.53697258  0.27109249  0.95130931     1.58000
O2598       O  0.49786723  0.31483305  0.93602533    -0.83100
H2599       H  0.57190137  0.23833656  0.00203820    -0.06800
O2600       O  0.96951418  0.19957920  0.02366466    -0.88300
H2601       H  0.92477121  0.16862277  0.01793479    -0.06600
H2602       H  0.54004589  0.29225002  0.05371348    -0.06800
C2603       C  0.94843573  0.18058376  0.01192686     0.86800
C2604       C  0.55419961  0.23877554  0.99208323     0.87400
C2605       C  0.52511769  0.27067881  0.04541778     0.87400
H2606       H  0.92359144  0.25835164  0.99504234    -0.06800
O2607       O  0.96107297  0.24582395  0.95569241    -0.75800
Mg2608     Mg  0.95688747  0.22465289  0.04618636     1.58000
H2609       H  0.95448982  0.20457886  0.94460250    -0.06800
C2610       C  0.99832418  0.13800507  0.00224800     0.92400
O2611       O  0.99768949  0.18253831  0.06276435    -0.83000
C2612       C  0.98253821  0.18698902  0.07754884     0.92500
O2613       O  0.54797633  0.24320297  0.92704878    -0.83000
Mg2614     Mg  0.98345575  0.29486779  0.97011641     1.58200
O2615       O  0.99963134  0.15266270  0.01932226    -0.81300
O2616       O  0.49787351  0.34847304  0.01475975    -0.83000
O2617       O  0.63192466  0.02151165  0.66867514    -0.88600
C2618       C  0.69485397  0.08778164  0.70995178     0.87400
Mg2619     Mg  0.64650366  0.01797568  0.63650490     1.58100
O2620       O  0.63951792  0.10418225  0.68775809    -0.88300
O2621       O  0.59828039  0.03102419  0.68485828    -0.75700
C2622       C  0.71550469  0.15844026  0.59626272     0.92500
O2623       O  0.70633294  0.04720286  0.67221772    -0.75500
O2624       O  0.71577525  0.13313047  0.59615974    -0.83000
Mg2625     Mg  0.66295333  0.02347941  0.69395121     1.58000
C2626       C  0.66843637  0.19425141  0.66741465     0.92400
O2627       O  0.62545083  0.99752244  0.72038169    -0.81300
H2628       H  0.59528804  0.09435326  0.68437016    -0.06600
C2629       C  0.72462719  0.14731685  0.66005556     0.87300
O2630       O  0.62572844  0.04693628  0.62291038    -0.75800
O2631       O  0.66896874  0.06762755  0.70334775    -0.88500
O2632       O  0.66568438  0.17861697  0.68423401    -0.81300
C2633       C  0.65418679  0.12782488  0.74185435     0.92500
C2634       C  0.61396199  0.00580686  0.73572916     0.92400
Mg2635     Mg  0.66675729  0.13992783  0.63736518     1.58000
O2636       O  0.70562074  0.16676889  0.61250805    -0.81300
O2637       O  0.62301094  0.11538312  0.65854663    -0.75500
O2638       O  0.65000845  0.10084859  0.73864701    -0.81300
O2639       O  0.65745095  0.47875240  0.68375246    -0.83100
O2640       O  0.68346043  0.06250484  0.59155842    -0.81400
C2641       C  0.61833713  0.10433113  0.67740593     0.86800
O2642       O  0.66113850  0.09573366  0.62738706    -0.88500
O2643       O  0.69763649  0.14202902  0.66259433    -0.88600
O2644       O  0.73112468  0.13235699  0.64638616    -0.75700
Mg2645     Mg  0.62666858  0.06785230  0.71056467     1.58000
O2646       O  0.66533525  0.14814452  0.72721553    -0.83100
H2647       H  0.58648547  0.99864371  0.66130449    -0.06800
O2648       O  0.69053538  0.05881663  0.64283807    -0.88300
H2649       H  0.73443415  0.06773215  0.64645923    -0.06600
H2650       H  0.62024691  0.08278604  0.61300675    -0.06800
C2651       C  0.71137569  0.05823714  0.65333441     0.86800
C2652       C  0.60485775  0.01602200  0.67126597     0.87400
C2653       C  0.63529686  0.07568946  0.62066090     0.87400
H2654       H  0.74301224  0.16450455  0.67010950    -0.06800
O2655       O  0.70414386  0.11651735  0.70787167    -0.75800
Mg2656     Mg  0.70368676  0.09573601  0.62030375     1.58000
H2657       H  0.71012046  0.08081332  0.71742666    -0.06800
C2658       C  0.66144026  0.47018143  0.66523424     0.92400
O2659       O  0.66295198  0.01421153  0.60309620    -0.83000
C2660       C  0.67566902  0.03429429  0.58833192     0.92500
O2661       O  0.61340501  0.03091028  0.73498681    -0.83000
Mg2662     Mg  0.68285924  0.14523912  0.69447369     1.58200
O2663       O  0.66302142  0.98426083  0.64726687    -0.81300
O2664       O  0.67283835  0.18616496  0.64884168    -0.83000
C2665       C  0.60389342  0.16082974  0.85426534     0.02000
C2666       C  0.57780417  0.16527064  0.85365090     0.02000
C2667       C  0.56060578  0.15883524  0.83423532    -0.18500
C2668       C  0.56985826  0.14908661  0.81560232     0.02000
C2669       C  0.59677645  0.14621492  0.81659406     0.02000
C2670       C  0.61302915  0.15154483  0.83581950    -0.18500
H2671       H  0.63410702  0.14989692  0.83615452     0.04000
H2672       H  0.54021323  0.16155720  0.83359890     0.04000
C2673       C  0.55793960  0.40288256  0.85383844     0.02000
C2674       C  0.58757220  0.43026397  0.85459319     0.02000
C2675       C  0.59833987  0.44952588  0.83633369    -0.18500
C2676       C  0.58028670  0.44182565  0.81750660     0.02000
C2677       C  0.55033426  0.41525608  0.81718564     0.02000
C2678       C  0.53954103  0.39598977  0.83521792    -0.18500
H2679       H  0.51698318  0.37496633  0.83451396     0.04000
H2680       H  0.62110368  0.47029715  0.83665430     0.04000
O2681       O  0.97193411  0.11135957  0.67097483    -0.88600
C2682       C  0.90666168  0.10526015  0.71398305     0.87400
Mg2683     Mg  0.97426165  0.12924541  0.63887201     1.58100
O2684       O  0.89335773  0.03549504  0.68989684    -0.88300
O2685       O  0.96758985  0.07082759  0.68739170    -0.75700
C2686       C  0.83124535  0.05703763  0.59916792     0.92500
O2687       O  0.94428779  0.15723737  0.67595370    -0.75500
O2688       O  0.85602660  0.08336665  0.59890832    -0.83000
Mg2689     Mg  0.97091677  0.13987801  0.69688512     1.58000
C2690       C  0.80416917  0.47360030  0.66861225     0.92400
O2691       O  0.99940958  0.13007485  0.72257169    -0.81300
H2692       H  0.90612745  0.00403677  0.68337149    -0.06600
C2693       C  0.84541024  0.07460202  0.66294792     0.87300
O2694       O  0.94642552  0.08024780  0.62464586    -0.75800
O2695       O  0.92781879  0.10070264  0.70780574    -0.88500
O2696       O  0.82049740  0.48616555  0.68533432    -0.81300
C2697       C  0.86694052  0.02129669  0.74390770     0.92500
C2698       C  0.99335111  0.11091700  0.73800325     0.92400
Mg2699     Mg  0.85480132  0.02732900  0.63863752     1.58000
O2700       O  0.82545885  0.03784940  0.61450791    -0.81300
O2701       O  0.88267113  0.01078910  0.65909340    -0.75500
O2702       O  0.89578852  0.04130996  0.74194844    -0.81300
O2703       O  0.51741331  0.18007009  0.68445524    -0.83100
O2704       O  0.92855620  0.12599752  0.59406295    -0.81400
C2705       C  0.89445525  0.01622599  0.67788683     0.86800
O2706       O  0.89716450  0.06658429  0.62781492    -0.88500
O2707       O  0.85331427  0.05482088  0.66477663    -0.88600
O2708       O  0.85846157  0.09641216  0.64942689    -0.75700
Mg2709     Mg  0.93016867  0.05892424  0.71336652     1.58000
O2710       O  0.84780622  0.01596993  0.72876463    -0.83100
H2711       H  0.99846975  0.09290319  0.66323421    -0.06800
O2712       O  0.93265370  0.13144854  0.64565989    -0.88300
H2713       H  0.92178655  0.16449405  0.65127684    -0.06600
H2714       H  0.91100162  0.03973798  0.61309699    -0.06800
C2715       C  0.93257252  0.15165788  0.65716997     0.86800
C2716       C  0.98033916  0.09205994  0.67343307     0.87400
C2717       C  0.91771132  0.06139914  0.62125627     0.87400
H2718       H  0.82757448  0.07377801  0.67345573    -0.06800
O2719       O  0.87807996  0.08556933  0.71069029    -0.75800
Mg2720     Mg  0.89510020  0.10845757  0.62291046     1.58000
H2721       H  0.91265392  0.12689703  0.72191947    -0.06800
C2722       C  0.52457410  0.19290471  0.66604612     0.92400
O2723       O  0.97727304  0.14955494  0.60602183    -0.83000
C2724       C  0.95751402  0.14509347  0.59144336     0.92500
O2725       O  0.96867939  0.08447243  0.73798014    -0.83000
Mg2726     Mg  0.85100384  0.03631085  0.69633521     1.58200
O2727       O  0.00755070  0.17911458  0.64914505    -0.81300
O2728       O  0.81118328  0.48670375  0.65027445    -0.83000
O2729       O  0.85584894  0.30448734  0.66143039    -0.88600
C2730       C  0.92699921  0.35017174  0.61856875     0.87400
Mg2731     Mg  0.84988457  0.32705142  0.68894295     1.58100
O2732       O  0.93340696  0.29528039  0.65097548    -0.88300
O2733       O  0.85897868  0.26408187  0.65095145    -0.75700
C2734       C  0.98527895  0.38884591  0.73600980     0.92500
O2735       O  0.88848042  0.37627001  0.64767817    -0.75500
O2736       O  0.96129025  0.39170665  0.73449617    -0.83000
Mg2737     Mg  0.86162237  0.32782175  0.63169289     1.58000
C2738       C  0.52265273  0.32806183  0.68027390     0.92400
O2739       O  0.83290731  0.28157291  0.61463815    -0.81300
H2740       H  0.91826189  0.25219401  0.66160362    -0.06600
C2741       C  0.98144139  0.38589284  0.67120158     0.87300
O2742       O  0.87191704  0.30527699  0.71048558    -0.75800
O2743       O  0.90484108  0.32753776  0.62711702    -0.88500
O2744       O  0.00723777  0.31917090  0.66255733    -0.81300
C2745       C  0.96416321  0.30055958  0.59766564     0.92500
C2746       C  0.84099130  0.27364794  0.59750911     0.92400
Mg2747     Mg  0.96536275  0.33346284  0.70140013     1.58000
O2748       O  0.99379250  0.37808886  0.72050306    -0.81300
O2749       O  0.93895342  0.28565231  0.68453618    -0.75500
O2750       O  0.93561109  0.29267524  0.60001018    -0.81300
O2751       O  0.81548547  0.32654572  0.63642107    -0.83100
O2752       O  0.89140959  0.37012088  0.73276112    -0.81400
C2753       C  0.92983021  0.27667426  0.66534984     0.86800
O2754       O  0.92215152  0.33424801  0.70585075    -0.88500
O2755       O  0.97193585  0.35776423  0.67183015    -0.88600
O2756       O  0.96848029  0.39801586  0.68210720    -0.75700
Mg2757     Mg  0.89887159  0.28177138  0.62579728     1.58000
O2758       O  0.98381399  0.31367193  0.61289220    -0.83100
H2759       H  0.82739677  0.26194659  0.67286624    -0.06800
O2760       O  0.89433098  0.36684979  0.68124138    -0.88300
H2761       H  0.90988233  0.40993016  0.67041680    -0.06600
H2762       H  0.90396385  0.29791053  0.72578532    -0.06800
C2763       C  0.89799783  0.38540459  0.66679139     0.86800
C2764       C  0.84649456  0.27637708  0.66224017     0.87400
C2765       C  0.89977896  0.31202853  0.71458948     0.87400
H2766       H  0.00096522  0.40046122  0.66092841    -0.06800
O2767       O  0.95499123  0.35752260  0.62275732    -0.75800
Mg2768     Mg  0.92811124  0.38022676  0.70666434     1.58000
H2769       H  0.92249209  0.36425848  0.60755457    -0.06800
C2770       C  0.80658926  0.33641902  0.65216203     0.92400
O2771       O  0.84419018  0.35092345  0.71857153    -0.83000
C2772       C  0.86325472  0.36418047  0.73400493     0.92500
O2773       O  0.86509399  0.27076702  0.59752987    -0.83000
Mg2774     Mg  0.97783128  0.33605081  0.64365778     1.58200
O2775       O  0.82203651  0.34523800  0.66971923    -0.81300
O2776       O  0.51153222  0.33471297  0.69654663    -0.83000
C2777       C  0.80929237  0.39201030  0.84859296     0.02000
C2778       C  0.80669690  0.41889318  0.84958291     0.02000
C2779       C  0.81591525  0.43908091  0.83211468    -0.18500
C2780       C  0.82756371  0.43282577  0.81335538     0.02000
C2781       C  0.82881964  0.40503943  0.81181867     0.02000
C2782       C  0.81939470  0.38478942  0.82949945    -0.18500
H2783       H  0.82009692  0.36340548  0.82848116     0.04000
H2784       H  0.81468420  0.46018384  0.83332857     0.04000
C2785       C  0.50716957  0.23560674  0.48012589     0.02000
C2786       C  0.50743225  0.26419539  0.47966193     0.02000
C2787       C  0.50180076  0.27564250  0.49890122    -0.18500
C2788       C  0.99569004  0.25826592  0.51927200     0.02000
C2789       C  0.99465299  0.22934848  0.51895985     0.02000
C2790       C  0.49963987  0.21861003  0.49924552    -0.18500
H2791       H  0.49850541  0.19626883  0.49932331     0.04000
H2792       H  0.50289141  0.29793920  0.49880582     0.04000
C2793       C  0.73225620  0.24438347  0.48283294     0.02000
C2794       C  0.76140329  0.27200209  0.48420253     0.02000
C2795       C  0.78100902  0.27737479  0.50190988    -0.18500
C2796       C  0.77164294  0.25586624  0.51861463     0.02000
C2797       C  0.74181731  0.22912776  0.51797355     0.02000
C2798       C  0.72246060  0.22316791  0.49992386    -0.18500
H2799       H  0.69989443  0.20219810  0.49921792     0.04000
H2800       H  0.80356743  0.29837223  0.50269640     0.04000
C2801       C  0.73200387  0.48727698  0.48008536     0.02000
C2802       C  0.76415717  0.49724350  0.48238083     0.02000
C2803       C  0.77923375  0.51085766  0.50192411    -0.18500
C2804       C  0.76248527  0.01416587  0.51922998     0.02000
C2805       C  0.73121073  0.00674825  0.51606285     0.02000
C2806       C  0.71604263  0.49230351  0.49690810    -0.18500
H2807       H  0.69175003  0.48575634  0.49479397     0.04000
H2808       H  0.80349549  0.51736080  0.50409179     0.04000
O2809       O  0.54125129  0.48526080  0.98858840    -0.88600
C2810       C  0.96998212  0.44463686  0.03215853     0.87400
Mg2811     Mg  0.57550563  0.03329248  0.99091377     1.58100
O2812       O  0.95021357  0.46129008  0.98116763    -0.88300
O2813       O  0.00816966  0.45370673  0.96554734    -0.75700
C2814       C  0.49869568  0.11029544  0.00254672     0.92500
O2815       O  0.54284645  0.50033274  0.03940509    -0.75500
O2816       O  0.52325760  0.11106144  0.00957852    -0.83000
Mg2817     Mg  0.53127709  0.45824051  0.01780914     1.58000
C2818       C  0.89081087  0.50179633  0.98277112     0.92400
O2819       O  0.52124433  0.41248710  0.00289536    -0.81300
H2820       H  0.94537039  0.45532121  0.94925942    -0.06600
C2821       C  0.96257519  0.02298549  0.02845717     0.87300
O2822       O  0.55074249  0.04758781  0.96582324    -0.75800
O2823       O  0.98440657  0.44627461  0.01551853    -0.88500
O2824       O  0.89121355  0.47681083  0.98662018    -0.81300
C2825       C  0.88921798  0.39029787  0.00034289     0.92500
C2826       C  0.49864684  0.38862082  0.99445204     0.92400
Mg2827     Mg  0.96601387  0.03952455  0.98084163     1.58000
O2828       O  0.97576207  0.08473578  0.99617215    -0.81300
O2829       O  0.95451277  0.99767042  0.95901924    -0.75500
O2830       O  0.91503433  0.39099339  0.99779353    -0.81300
O2831       O  0.58154566  0.46952086  0.01892954    -0.83100
O2832       O  0.58482436  0.10795428  0.00076500    -0.81400
C2833       C  0.95013990  0.47070647  0.96283970     0.86800
O2834       O  0.51492957  0.05330239  0.98249957    -0.88500
O2835       O  0.95633616  0.01256942  0.00995873    -0.88600
O2836       O  0.49071229  0.04500344  0.03219683    -0.75700
Mg2837     Mg  0.96293944  0.42564655  0.98449188     1.58000
O2838       O  0.88726358  0.41457900  0.00305322    -0.83100
H2839       H  0.55373244  0.48416239  0.95812496    -0.06800
O2840       O  0.54872028  0.03750624  0.01690315    -0.88300
H2841       H  0.55431600  0.04366464  0.04876743    -0.06600
H2842       H  0.52343474  0.06176982  0.95105024    -0.06800
C2843       C  0.54905673  0.02815384  0.03519994     0.86800
C2844       C  0.53535515  0.47503774  0.97003925     0.87400
C2845       C  0.52947809  0.05482780  0.96593831     0.87400
H2846       H  0.94442082  0.01397588  0.04053279    -0.06800
O2847       O  0.94841060  0.45142245  0.03236420    -0.75800
Mg2848     Mg  0.53625814  0.07337166  0.01362309     1.58000
H2849       H  0.97639360  0.43799087  0.04702314    -0.06800
C2850       C  0.60670201  0.49502210  0.01640294     0.92400
O2851       O  0.61184333  0.08364332  0.99506805    -0.83000
C2852       C  0.61040612  0.10817799  0.99794509     0.92500
O2853       O  0.97576742  0.38796744  0.98848494    -0.83000
Mg2854     Mg  0.92318987  0.46508796  0.00726611     1.58200
O2855       O  0.60659876  0.02091604  0.01187068    -0.81300
O2856       O  0.91535354  0.02804810  0.98030939    -0.83000
O2857       O  0.87003562  0.14927676  0.31596053    -0.88600
C2858       C  0.80928576  0.11164790  0.36723773     0.87400
Mg2859     Mg  0.90826117  0.19657937  0.31463064     1.58100
O2860       O  0.78006098  0.12977227  0.32087240    -0.88300
O2861       O  0.82956161  0.11603244  0.29738091    -0.75700
C2862       C  0.84825501  0.28296613  0.34545152     0.92500
O2863       O  0.88612919  0.16658589  0.36636105    -0.75500
O2864       O  0.87394738  0.28305265  0.34714392    -0.83000
Mg2865     Mg  0.86703412  0.12345503  0.34490343     1.58000
C2866       C  0.73128142  0.17685019  0.33125913     0.92400
O2867       O  0.84990696  0.07627611  0.32809387    -0.81300
H2868       H  0.76971194  0.12513894  0.28946457    -0.06600
C2869       C  0.81343369  0.19557944  0.36882780     0.87300
O2870       O  0.87986427  0.21289234  0.29527280    -0.75800
O2871       O  0.81933105  0.11339212  0.34880044    -0.88500
O2872       O  0.73030071  0.15138569  0.33501446    -0.81300
C2873       C  0.71924594  0.06214052  0.34513881     0.92500
C2874       C  0.82373894  0.05156882  0.32521600     0.92400
Mg2875     Mg  0.80590151  0.21181769  0.32323366     1.58000
O2876       O  0.82261348  0.25835410  0.34111052    -0.81300
O2877       O  0.78737091  0.16899876  0.30094897    -0.75500
O2878       O  0.74373385  0.06106119  0.34032814    -0.81300
O2879       O  0.91769997  0.13431312  0.34044056    -0.83100
O2880       O  0.92839199  0.27247775  0.32851401    -0.81400
C2881       C  0.77839203  0.14040364  0.30329052     0.86800
O2882       O  0.85297534  0.22193717  0.31909409    -0.88500
O2883       O  0.80142411  0.18410926  0.35128600    -0.88600
O2884       O  0.84212286  0.21591171  0.37036018    -0.75700
Mg2885     Mg  0.78895043  0.09169593  0.32138966     1.58000
O2886       O  0.72005193  0.08760545  0.34901182    -0.83100
H2887       H  0.87244914  0.14310637  0.28433372    -0.06800
O2888       O  0.89234818  0.20450891  0.34555208    -0.88300
H2889       H  0.90515593  0.21115086  0.37650147    -0.06600
H2890       H  0.85206688  0.23070443  0.28779814    -0.06800
C2891       C  0.89540997  0.19501526  0.36320093     0.86800
C2892       C  0.85822385  0.13644022  0.29869779     0.87400
C2893       C  0.86146550  0.22266395  0.30032032     0.87400
H2894       H  0.79933563  0.18781031  0.38323756    -0.06800
O2895       O  0.78918018  0.11966367  0.37140724    -0.75800
Mg2896     Mg  0.88309863  0.24214683  0.34679886     1.58000
H2897       H  0.81811527  0.10359230  0.38012153    -0.06800
C2898       C  0.94229409  0.15900142  0.33469192     0.92400
O2899       O  0.94945992  0.24591195  0.31425497    -0.83000
C2900       C  0.95129802  0.27119396  0.32023830     0.92500
O2901       O  0.79818776  0.05161206  0.32345124    -0.83000
Mg2902     Mg  0.76216566  0.13687735  0.35082149     1.58200
O2903       O  0.94181817  0.18284608  0.32821891    -0.81300
O2904       O  0.75656415  0.20199189  0.32795567    -0.83000
O2905       O  0.62257299  0.34503843  0.65577049    -0.88600
C2906       C  0.69257502  0.38703334  0.70036016     0.87400
Mg2907     Mg  0.58844330  0.29667142  0.65711499     1.58100
O2908       O  0.71593898  0.37238376  0.64970916    -0.88300
O2909       O  0.65700754  0.37768067  0.63328129    -0.75700
C2910       C  0.66669350  0.22268614  0.66927564     0.92500
O2911       O  0.61874357  0.32859475  0.70646731    -0.75500
O2912       O  0.64181140  0.22118821  0.67633612    -0.83000
Mg2913     Mg  0.62970538  0.37070032  0.68549178     1.58000
C2914       C  0.77629976  0.33515937  0.65137129     0.92400
O2915       O  0.63995423  0.41691731  0.67090863    -0.81300
H2916       H  0.72252981  0.37991263  0.61805059    -0.06600
C2917       C  0.70051550  0.30807127  0.69600560     0.87300
O2918       O  0.61507146  0.28411735  0.63257283    -0.75800
O2919       O  0.67887161  0.38503911  0.68331816    -0.88500
O2920       O  0.77521206  0.35889449  0.65773109    -0.81300
C2921       C  0.77588225  0.44325970  0.67032434     0.92500
C2922       C  0.66301225  0.44175115  0.66376956     0.92400
Mg2923     Mg  0.69972766  0.29420235  0.64806383     1.58000
O2924       O  0.68972482  0.24773200  0.66232554    -0.81300
O2925       O  0.71056632  0.33632126  0.62728760    -0.75500
O2926       O  0.74997400  0.44156147  0.66583395    -0.81300
O2927       O  0.57749067  0.35569264  0.68561099    -0.83100
O2928       O  0.57911058  0.22335639  0.66844604    -0.81400
C2929       C  0.71696398  0.36385011  0.63122423     0.86800
O2930       O  0.65059413  0.27973844  0.65050704    -0.88500
O2931       O  0.70737606  0.31989625  0.67798568    -0.88600
O2932       O  0.67307143  0.28674103  0.70031381    -0.75700
Mg2933     Mg  0.70175825  0.40649247  0.65281055     1.58000
O2934       O  0.77814321  0.41952171  0.67458009    -0.83100
H2935       H  0.61204013  0.34771246  0.62508510    -0.06800
O2936       O  0.61409145  0.29259436  0.68425004    -0.88300
H2937       H  0.60739317  0.28523160  0.71592594    -0.06600
H2938       H  0.64410295  0.27116793  0.61891014    -0.06800
C2939       C  0.61286991  0.30117599  0.70268620     0.86800
C2940       C  0.62951363  0.35654831  0.63766121     0.87400
C2941       C  0.63682282  0.27768667  0.63349089     0.87400
H2942       H  0.71803154  0.31671586  0.70855554    -0.06800
O2943       O  0.71449708  0.38083811  0.70127840    -0.75800
Mg2944     Mg  0.62797792  0.25812172  0.68099547     1.58000
H2945       H  0.68513889  0.39336060  0.71495381    -0.06800
C2946       C  0.55311125  0.32963292  0.68182758     0.92400
O2947       O  0.55196339  0.24642955  0.65952429    -0.83000
C2948       C  0.55351227  0.22244148  0.66403456     0.92500
O2949       O  0.68787983  0.44312833  0.65690985    -0.83000
Mg2950     Mg  0.74152609  0.36852447  0.67687391     1.58200
O2951       O  0.55455143  0.30571472  0.67655550    -0.81300
O2952       O  0.75180245  0.30936937  0.64722050    -0.83000
C2953       C  0.87280504  0.38265057  0.77216446    -0.26600
C2954       C  0.85347526  0.37420673  0.75381192    -0.14700
C2955       C  0.82661785  0.37751001  0.75442792     0.36000
C2956       C  0.81927662  0.38793039  0.77348644    -0.26000
C2957       C  0.83840014  0.39575028  0.79176712    -0.15300
C2958       C  0.86561330  0.39339035  0.79105730     0.37100
N2959       N  0.88642456  0.40291482  0.80924639    -0.89500
H2960       H  0.89376298  0.38088298  0.77184067     0.18200
H2961       H  0.79849408  0.39000592  0.77412941     0.18200
N2962       N  0.80718373  0.37090532  0.73570052    -0.88600
H2963       H  0.90647417  0.40181024  0.80554280     0.35500
H2964       H  0.87527326  0.38701480  0.82162927     0.40600
H2965       H  0.82031179  0.38744705  0.72404372     0.40300
H2966       H  0.78806039  0.37377186  0.73909122     0.35100
C2967       C  0.82584332  0.25199236  0.56020646    -0.26600
C2968       C  0.82293546  0.26902257  0.57729992    -0.14700
C2969       C  0.80477764  0.28360238  0.57394931     0.36000
C2970       C  0.78991127  0.28038140  0.55425054    -0.26000
C2971       C  0.79198007  0.26252334  0.53768319    -0.15300
C2972       C  0.81029315  0.24843997  0.54054145     0.37100
N2973       N  0.81295617  0.23038998  0.52354648    -0.89500
H2974       H  0.83997558  0.24111996  0.56214225     0.18200
H2975       H  0.77574201  0.29118443  0.55207078     0.18200
N2976       N  0.80120775  0.30231020  0.58997500    -0.88600
H2977       H  0.80553234  0.20814527  0.52946356     0.35500
H2978       H  0.83656071  0.24032315  0.51956361     0.40600
H2979       H  0.78968483  0.28846188  0.60325254     0.40300
H2980       H  0.82328824  0.32029329  0.59440879     0.35100
C2981       C  0.00156974  0.29126762  0.57591781    -0.26600
C2982       C  0.97372265  0.29236737  0.57697000    -0.14700
C2983       C  0.95421518  0.28342974  0.55853217     0.36000
C2984       C  0.96231112  0.27288741  0.54002424    -0.26000
C2985       C  0.98946595  0.27078957  0.53925763    -0.15300
C2986       C  0.00976335  0.28073171  0.55733299     0.37100
N2987       N  0.03912527  0.28131556  0.55730189    -0.89500
H2988       H  0.01696622  0.29818706  0.58976101     0.18200
H2989       H  0.94689557  0.26577465  0.52617210     0.18200
N2990       N  0.92603072  0.28494862  0.55839638    -0.88600
H2991       H  0.03777858  0.26529928  0.56871163     0.35500
H2992       H  0.04375969  0.27463845  0.54244502     0.40600
H2993       H  0.90737847  0.26272978  0.55521187     0.40300
H2994       H  0.92737448  0.29946629  0.54581324     0.35100
C2995       C  0.81743655  0.46308778  0.78611411    -0.26600
C2996       C  0.83871656  0.45625206  0.79601045    -0.14700
C2997       C  0.87054403  0.47343975  0.79054369     0.36000
C2998       C  0.88012210  0.49575154  0.77416274    -0.26000
C2999       C  0.85856313  0.50152952  0.76328597    -0.15300
C3000       C  0.82684272  0.48529769  0.76984533     0.37100
N3001       N  0.80026563  0.98740833  0.75895046    -0.89500
H3002       H  0.79311945  0.45066825  0.79089333     0.18200
H3003       H  0.90445283  0.50798387  0.76944649     0.18200
N3004       N  0.89297308  0.46824150  0.80170035    -0.88600
H3005       H  0.79987190  0.48359395  0.74456937     0.35500
H3006       H  0.80674643  0.01085652  0.75953501     0.40600
H3007       H  0.89325188  0.47454627  0.81781331     0.40300
H3008       H  0.91541542  0.48267539  0.79568366     0.35100
C3009       C  0.79627935  0.05713221  0.54442675    -0.26600
C3010       C  0.77797594  0.02528146  0.54041547    -0.14700
C3011       C  0.77497901  0.00401689  0.55643434     0.36000
C3012       C  0.79082537  0.01506296  0.57612216    -0.26000
C3013       C  0.81014998  0.04701529  0.58004044    -0.15300
C3014       C  0.81226047  0.06818857  0.56405890     0.37100
N3015       N  0.83086733  0.10093757  0.56752770    -0.89500
H3016       H  0.79864193  0.07352060  0.53210895     0.18200
H3017       H  0.78925954  0.99847697  0.58801265     0.18200
N3018       N  0.75708473  0.97126040  0.55221629    -0.88600
H3019       H  0.81641837  0.11058355  0.56598814     0.35500
H3020       H  0.84773103  0.11015433  0.55539352     0.40600
H3021       H  0.73430828  0.46653776  0.55055048     0.40300
H3022       H  0.75858501  0.46001987  0.56545563     0.35100
C3023       C  0.94514745  0.16939464  0.56096191    -0.26600
C3024       C  0.96760184  0.16499620  0.57186868    -0.14700
C3025       C  0.99916389  0.18230432  0.56509003     0.36000
C3026       C  0.00722659  0.20322212  0.54800543    -0.26000
C3027       C  0.98487855  0.20824715  0.53774600    -0.15300
C3028       C  0.95328146  0.19068491  0.54411400     0.37100
N3029       N  0.92863889  0.19301507  0.53357275    -0.89500
H3030       H  0.92088390  0.15662232  0.56582272     0.18200
H3031       H  0.03132888  0.21595287  0.54276840     0.18200
N3032       N  0.02357398  0.17907760  0.57493999    -0.88600
H3033       H  0.91946009  0.20212685  0.54471301     0.35500
H3034       H  0.93667078  0.20811997  0.52051409     0.40600
H3035       H  0.01723557  0.15565528  0.57478786     0.40300
H3036       H  0.02662271  0.18710949  0.59080910     0.35100
C3037       C  0.51779135  0.42455250  0.79105747    -0.26600
C3038       C  0.53100844  0.40660879  0.79744451    -0.14700
C3039       C  0.52843122  0.38267374  0.78399256     0.36000
C3040       C  0.51430505  0.37838723  0.76374100    -0.26000
C3041       C  0.50217264  0.39717154  0.75683372    -0.15300
C3042       C  0.50364608  0.42032577  0.77076046     0.37100
N3043       N  0.49132444  0.43974441  0.76414853    -0.89500
H3044       H  0.51934921  0.44251474  0.80174450     0.18200
H3045       H  0.01684141  0.36196009  0.75031528     0.18200
N3046       N  0.53962779  0.36250018  0.79111200    -0.88600
H3047       H  0.49425821  0.45553661  0.77633137     0.35500
H3048       H  0.50458130  0.45285188  0.75104950     0.40600
H3049       H  0.56374637  0.37575640  0.79317688     0.40300
H3050       H  0.04326065  0.34872751  0.77428997     0.35100
C3051       C  0.53650038  0.15207014  0.76053710    -0.26600
C3052       C  0.51640606  0.12030316  0.75620507    -0.14700
C3053       C  0.01645880  0.09936786  0.77114307     0.36000
C3054       C  0.53133813  0.10878219  0.79099772    -0.26000
C3055       C  0.55087055  0.14039873  0.79544589    -0.15300
C3056       C  0.55378983  0.16237378  0.77982415     0.37100
N3057       N  0.57371295  0.19518293  0.78295939    -0.89500
H3058       H  0.53829903  0.16925013  0.74907787     0.18200
H3059       H  0.52923486  0.09175272  0.80269033     0.18200
N3060       N  0.00098890  0.06693930  0.76574942    -0.88600
H3061       H  0.59098242  0.20308349  0.77109080     0.35500
H3062       H  0.58519513  0.20022517  0.79777540     0.40600
H3063       H  0.97715996  0.05785283  0.76855996     0.40300
H3064       H  0.00799220  0.05509796  0.77617784     0.35100
C3065       C  0.61469037  0.46882677  0.76171595    -0.26600
C3066       C  0.60516619  0.49051199  0.75714650    -0.14700
C3067       C  0.58404891  0.99097107  0.77091104     0.36000
C3068       C  0.58426281  0.48329987  0.79364929    -0.26000
C3069       C  0.59283310  0.46095430  0.79781397    -0.15300
C3070       C  0.60876189  0.45400010  0.78175349     0.37100
N3071       N  0.61982292  0.43258771  0.78526788    -0.89500
H3072       H  0.62748669  0.46371247  0.74977495     0.18200
H3073       H  0.57194042  0.48842591  0.80596517     0.18200
N3074       N  0.56883618  0.00819277  0.76530526    -0.88600
H3075       H  0.60821567  0.41417695  0.77444482     0.35500
H3076       H  0.61476691  0.42334369  0.80077006     0.40600
H3077       H  0.55537415  0.00866193  0.77813963     0.40300
H3078       H  0.55333254  0.99633422  0.75271609     0.35100
C3079       C  0.62615507  0.10952929  0.77664250    -0.26600
C3080       C  0.64314463  0.13430525  0.76235521    -0.14700
C3081       C  0.64543752  0.16333723  0.76658721     0.36000
C3082       C  0.62884751  0.16612344  0.78392939    -0.26000
C3083       C  0.61086032  0.14093679  0.79739109    -0.15300
C3084       C  0.61025509  0.11269558  0.79425166     0.37100
N3085       N  0.59379085  0.08754706  0.80908315    -0.89500
H3086       H  0.62451208  0.08727571  0.77381539     0.18200
H3087       H  0.63048727  0.18825467  0.78732057     0.18200
N3088       N  0.66437403  0.18981022  0.75331889    -0.88600
H3089       H  0.59608050  0.06849468  0.80465785     0.35500
H3090       H  0.57007385  0.08037748  0.80794072     0.40600
H3091       H  0.68759869  0.19546377  0.75546734     0.40300
H3092       H  0.66292846  0.20907632  0.75846410     0.35100
C3093       C  0.70524015  0.04983862  0.55375295    -0.26600
C3094       C  0.68471655  0.02584571  0.56754719    -0.14700
C3095       C  0.67708022  0.99511049  0.56258122     0.36000
C3096       C  0.69161899  0.98937649  0.54514744    -0.26000
C3097       C  0.71398358  0.01372278  0.53263132    -0.15300
C3098       C  0.71981848  0.04420659  0.53636597     0.37100
N3099       N  0.74073062  0.07006802  0.52321374    -0.89500
H3100       H  0.71118950  0.07357899  0.55694469     0.18200
H3101       H  0.68612520  0.96580484  0.54179894     0.18200
N3102       N  0.65518069  0.96966028  0.57542447    -0.88600
H3103       H  0.72774475  0.07908322  0.51619681     0.35500
H3104       H  0.74971665  0.06322088  0.51047650     0.40600
H3105       H  0.66650243  0.95838053  0.58164158     0.40300
H3106       H  0.63717119  0.95408427  0.56535731     0.35100
C3107       C  0.71633421  0.20089532  0.57470552    -0.26600
C3108       C  0.72387976  0.17720626  0.57621174    -0.14700
C3109       C  0.73504154  0.16920305  0.55759286     0.36000
C3110       C  0.73793123  0.18474867  0.53814455    -0.26000
C3111       C  0.73076447  0.20855248  0.53692186    -0.15300
C3112       C  0.71938876  0.21645487  0.55535630     0.37100
N3113       N  0.71141352  0.24058298  0.55520060    -0.89500
H3114       H  0.70733149  0.20713292  0.58859348     0.18200
H3115       H  0.74719347  0.17926629  0.52403677     0.18200
N3116       N  0.74366682  0.14558255  0.55841459    -0.88600
H3117       H  0.68768723  0.23038747  0.55889365     0.35500
H3118       H  0.71409443  0.25031906  0.53994736     0.40600
H3119       H  0.76319692  0.15372237  0.56844468     0.40300
H3120       H  0.75060230  0.14209367  0.54323947     0.35100
C3121       C  0.50707262  0.34778438  0.89770067    -0.26600
C3122       C  0.52247123  0.33101767  0.90205886    -0.14700
C3123       C  0.55030404  0.33890642  0.89051651     0.36000
C3124       C  0.56176026  0.36282619  0.87532718    -0.26000
C3125       C  0.54643394  0.37952619  0.87130624    -0.15300
C3126       C  0.51879489  0.37180990  0.88249839     0.37100
N3127       N  0.50294251  0.38882690  0.87875019    -0.89500
H3128       H  0.48612916  0.34272663  0.90649309     0.18200
H3129       H  0.58283134  0.36838600  0.86650401     0.18200
N3130       N  0.07220379  0.32407694  0.89624317    -0.88600
H3131       H  0.50174270  0.39867737  0.89336367     0.35500
H3132       H  0.48016494  0.37315927  0.87381576     0.40600
H3133       H  0.05872194  0.30027295  0.89331663     0.40300
H3134       H  0.07896757  0.32797531  0.91242111     0.35100
C3135       C  0.55088651  0.17412904  0.90978581    -0.26600
C3136       C  0.55623814  0.20473053  0.90922363    -0.14700
C3137       C  0.56882304  0.22203007  0.89001746     0.36000
C3138       C  0.57539591  0.20840143  0.87228092    -0.26000
C3139       C  0.56928653  0.17772550  0.87283716    -0.15300
C3140       C  0.55688321  0.16038880  0.89194867     0.37100
N3141       N  0.54889737  0.12847092  0.89367305    -0.89500
H3142       H  0.54095586  0.16014586  0.92405783     0.18200
H3143       H  0.58519652  0.22178622  0.85774583     0.18200
N3144       N  0.57446298  0.25317729  0.88825432    -0.88600
H3145       H  0.56364195  0.12722847  0.90519026     0.35500
H3146       H  0.55244703  0.11991150  0.87923642     0.40600
H3147       H  0.55267118  0.25166836  0.88703429     0.40300
H3148       H  0.58615679  0.26337015  0.87392423     0.35100
C3149       C  0.81689730  0.35608400  0.90052929    -0.26600
C3150       C  0.78575913  0.34034052  0.90755400    -0.14700
C3151       C  0.76250958  0.34027258  0.89439548     0.36000
C3152       C  0.77062416  0.35539710  0.87450893    -0.26000
C3153       C  0.80178596  0.37183717  0.86774405    -0.15300
C3154       C  0.82531066  0.37205511  0.88090012     0.37100
N3155       N  0.85778407  0.38808687  0.87502092    -0.89500
H3156       H  0.83491095  0.35575305  0.91026530     0.18200
H3157       H  0.75253900  0.35527614  0.86459249     0.18200
N3158       N  0.73073558  0.32572663  0.90143730    -0.88600
H3159       H  0.87008389  0.40473729  0.88687769     0.35500
H3160       H  0.86176221  0.40009376  0.86058402     0.40600
H3161       H  0.71690684  0.30967830  0.88968142     0.40300
H3162       H  0.72421473  0.34270865  0.90226543     0.35100
C3163       C  0.64592407  0.20103968  0.87629476    -0.26600
C3164       C  0.62506510  0.16958036  0.87284205    -0.14700
C3165       C  0.62774426  0.14710426  0.88488171     0.36000
C3166       C  0.65062158  0.15679326  0.90097541    -0.26000
C3167       C  0.67136749  0.18845822  0.90483727    -0.15300
C3168       C  0.66910048  0.21085122  0.89214889     0.37100
N3169       N  0.68970729  0.24344704  0.89560762    -0.89500
H3170       H  0.64418961  0.21801369  0.86639373     0.18200
H3171       H  0.65208850  0.13950156  0.91066156     0.18200
N3172       N  0.60691941  0.11462642  0.88097164    -0.88600
H3173       H  0.68391978  0.24921191  0.91044799     0.35500
H3174       H  0.68579820  0.25631940  0.88402816     0.40600
H3175       H  0.61182244  0.10931334  0.86568650     0.40300
H3176       H  0.61121273  0.10120435  0.89185447     0.35100
C3177       C  0.65606938  0.45327613  0.89288371    -0.26600
C3178       C  0.64603790  0.46189675  0.91157364    -0.14700
C3179       C  0.61602388  0.45902728  0.91147845     0.36000
C3180       C  0.59735994  0.44824464  0.89277103    -0.26000
C3181       C  0.60755794  0.43967292  0.87424366    -0.15300
C3182       C  0.63730609  0.44206717  0.87441161     0.37100
N3183       N  0.64891516  0.43238456  0.85651131    -0.89500
H3184       H  0.67866918  0.45471826  0.89265480     0.18200
H3185       H  0.57460618  0.44646542  0.89261207     0.18200
N3186       N  0.60421819  0.46642952  0.93039461    -0.88600
H3187       H  0.66777810  0.45219197  0.84995321     0.35500
H3188       H  0.63229089  0.42182510  0.84436102     0.40600
H3189       H  0.60083039  0.45007268  0.94216752     0.40300
H3190       H  0.58228019  0.46394118  0.92737971     0.35100
C3191       C  0.80391999  0.44489669  0.90608394    -0.26600
C3192       C  0.77183652  0.43420134  0.90870530    -0.14700
C3193       C  0.75149113  0.41984021  0.89108361     0.36000
C3194       C  0.76351209  0.41630014  0.87149104    -0.26000
C3195       C  0.79539042  0.42660014  0.86926960    -0.15300
C3196       C  0.81575704  0.44133603  0.88653442     0.37100
N3197       N  0.84852979  0.45280358  0.88419235    -0.89500
H3198       H  0.82020415  0.45669948  0.91911919     0.18200
H3199       H  0.74780055  0.40469898  0.85813237     0.18200
N3200       N  0.71869965  0.40859727  0.89297159    -0.88600
H3201       H  0.85480166  0.94334590  0.89542396     0.35500
H3202       H  0.86019855  0.47669387  0.88706494     0.40600
H3203       H  0.70684947  0.38487010  0.88947525     0.40300
H3204       H  0.71245869  0.41969965  0.88136437     0.35100
C3205       C  0.93429587  0.33164332  0.10809549    -0.26600
C3206       C  0.92448120  0.31331495  0.12668787    -0.14700
C3207       C  0.91984027  0.28298633  0.12570896     0.36000
C3208       C  0.92610058  0.27201317  0.10659686    -0.26000
C3209       C  0.93695715  0.29054713  0.08797164    -0.15300
C3210       C  0.94035467  0.32063995  0.08872631     0.37100
N3211       N  0.95020631  0.34015060  0.07000652    -0.89500
H3212       H  0.93714299  0.35466540  0.10870539     0.18200
H3213       H  0.92305431  0.24890170  0.10656872     0.18200
N3214       N  0.90858702  0.26272545  0.14391710    -0.88600
H3215       H  0.95237463  0.36170593  0.07349323     0.35500
H3216       H  0.93248180  0.32967179  0.05849232     0.40600
H3217       H  0.88706852  0.26011909  0.14850306     0.40300
H3218       H  0.92430081  0.27309799  0.15664114     0.35100
C3219       C  0.84501870  0.28841017  0.12505363    -0.26600
C3220       C  0.86786616  0.31908871  0.12907453    -0.14700
C3221       C  0.86966621  0.34312012  0.11622305     0.36000
C3222       C  0.84899379  0.33579112  0.09887709    -0.26000
C3223       C  0.82633195  0.30491490  0.09433137    -0.15300
C3224       C  0.82432238  0.28088269  0.10769328     0.37100
N3225       N  0.80209088  0.24889939  0.10331619    -0.89500
H3226       H  0.84368501  0.27025372  0.13534733     0.18200
H3227       H  0.85084178  0.35429223  0.08873018     0.18200
N3228       N  0.89286325  0.37477486  0.12064835    -0.88600
H3229       H  0.80277821  0.23461429  0.11535043     0.35500
H3230       H  0.80900699  0.24275854  0.08908513     0.40600
H3231       H  0.88764202  0.38078717  0.13559799     0.40300
H3232       H  0.89157213  0.38961677  0.10934780     0.35100
C3233       C  0.81692297  0.50817106  0.43432475    -0.26600
C3234       C  0.80691440  0.47722290  0.42852600    -0.14700
C3235       C  0.78408793  0.45319333  0.44167813     0.36000
C3236       C  0.77179642  0.46050498  0.45956316    -0.26000
C3237       C  0.78128569  0.49123409  0.46498992    -0.15300
C3238       C  0.80441259  0.51529565  0.45246900     0.37100
N3239       N  0.81426093  0.54691630  0.45761599    -0.89500
H3240       H  0.83410718  0.52691447  0.42454111     0.18200
H3241       H  0.75377712  0.44185227  0.46898420     0.18200
N3242       N  0.77158621  0.42097671  0.43685009    -0.88600
H3243       H  0.80983085  0.55688494  0.44426425     0.35500
H3244       H  0.83837204  0.55852294  0.46017403     0.40600
H3245       H  0.78939812  0.41556103  0.43801301     0.40300
H3246       H  0.76234430  0.41647972  0.42126067     0.35100
C3247       C  0.80224334  0.31509927  0.43387085    -0.26600
C3248       C  0.78568402  0.33052150  0.42895927    -0.14700
C3249       C  0.76279281  0.32856331  0.44341538     0.36000
C3250       C  0.75660091  0.31093387  0.46218797    -0.26000
C3251       C  0.77221980  0.29451431  0.46643211    -0.15300
C3252       C  0.79575344  0.29713429  0.45246794     0.37100
N3253       N  0.81294794  0.28158281  0.45724494    -0.89500
H3254       H  0.82053439  0.31716585  0.42321386     0.18200
H3255       H  0.73877805  0.30921000  0.47317120     0.18200
N3256       N  0.74514038  0.34354246  0.43884871    -0.88600
H3257       H  0.82973203  0.28619694  0.44539790     0.35500
H3258       H  0.79743057  0.25773272  0.45675213     0.40600
H3259       H  0.74813486  0.35842515  0.45168615     0.40300
H3260       H  0.72154608  0.32655257  0.43822845     0.35100
C3261       C  0.87058977  0.37742738  0.22666923    -0.26600
C3262       C  0.85990037  0.35525214  0.24332684    -0.14700
C3263       C  0.86139329  0.32777584  0.24035981     0.36000
C3264       C  0.87411831  0.32372515  0.22119884    -0.26000
C3265       C  0.88631576  0.34681642  0.20540484    -0.15300
C3266       C  0.88398923  0.37360382  0.20789792     0.37100
N3267       N  0.89515642  0.39673959  0.19128137    -0.89500
H3268       H  0.86938265  0.39845351  0.22844991     0.18200
H3269       H  0.87476659  0.30252864  0.21859647     0.18200
N3270       N  0.85036541  0.30422001  0.25666728    -0.88600
H3271       H  0.89130675  0.41492380  0.19546112     0.35500
H3272       H  0.91932112  0.40623001  0.19024516     0.40600
H3273       H  0.86607180  0.31298693  0.26954297     0.40300
H3274       H  0.85109187  0.28472677  0.25113261     0.35100
C3275       C  0.55193971  0.31969754  0.43384658    -0.26600
C3276       C  0.52797112  0.32109334  0.42250860    -0.14700
C3277       C  0.49707774  0.30365375  0.43030423     0.36000
C3278       C  0.99141772  0.28487441  0.44954675    -0.26000
C3279       C  0.51505381  0.28340873  0.45980035    -0.15300
C3280       C  0.54601099  0.30133486  0.45224677     0.37100
N3281       N  0.57219927  0.30223067  0.46302078    -0.89500
H3282       H  0.57582954  0.33285561  0.42825154     0.18200
H3283       H  0.96763076  0.27109550  0.45522039     0.18200
N3284       N  0.97253772  0.30368935  0.41953353    -0.88600
H3285       H  0.58161577  0.29245148  0.45264076     0.35500
H3286       H  0.56567242  0.28903922  0.47705837     0.40600
H3287       H  0.97598050  0.32613188  0.42082936     0.40300
H3288       H  0.95117196  0.28897447  0.42693069     0.35100
C3289       C  0.67190659  0.43214979  0.43968913    -0.26600
C3290       C  0.68097467  0.45026282  0.42085566    -0.14700
C3291       C  0.70869541  0.47977749  0.42148365     0.36000
C3292       C  0.72514568  0.49081753  0.44076406    -0.26000
C3293       C  0.71503980  0.47339502  0.45967413    -0.15300
C3294       C  0.68861725  0.44354500  0.45902739     0.37100
N3295       N  0.67861793  0.42485951  0.47803810    -0.89500
H3296       H  0.65100147  0.40954323  0.43972869     0.18200
H3297       H  0.74555736  0.51377989  0.44113303     0.18200
N3298       N  0.72084708  0.49943491  0.40301421    -0.88600
H3299       H  0.67853767  0.40421214  0.47473750     0.35500
H3300       H  0.65569934  0.41936921  0.48136601     0.40600
H3301       H  0.70588614  0.50767995  0.39874556     0.40300
H3302       H  0.72295852  0.48678122  0.39030158     0.35100
C3303       C  0.94554460  0.33576341  0.21976636    -0.26600
C3304       C  0.95013052  0.35558595  0.20252451    -0.14700
C3305       C  0.97382214  0.38711307  0.20412526     0.36000
C3306       C  0.99218101  0.39781856  0.22291814    -0.26000
C3307       C  0.98740385  0.37810750  0.24047834    -0.15300
C3308       C  0.96318377  0.34658598  0.23883411     0.37100
N3309       N  0.95635513  0.32543299  0.25643324    -0.89500
H3310       H  0.92746261  0.31166985  0.21850744     0.18200
H3311       H  0.01052270  0.42186297  0.22366562     0.18200
N3312       N  0.97975029  0.40905873  0.18722215    -0.88600
H3313       H  0.93887483  0.30306060  0.25221673     0.35500
H3314       H  0.94722475  0.33261196  0.26894060     0.40600
H3315       H  0.96467669  0.39893589  0.17418236     0.40300
H3316       H  0.00228756  0.41665534  0.18146482     0.35100
C3317       C  0.97607092  0.12786020  0.11916047    -0.26600
C3318       C  0.94772044  0.12033198  0.12915543    -0.14700
C3319       C  0.93323904  0.13782258  0.12427687     0.36000
C3320       C  0.94630682  0.16100911  0.10838814    -0.26000
C3321       C  0.97360046  0.16715980  0.09720642    -0.15300
C3322       C  0.98902884  0.15078338  0.10312868     0.37100
N3323       N  0.01759509  0.15717696  0.09272060    -0.89500
H3324       H  0.98785196  0.11528922  0.12366441     0.18200
H3325       H  0.93433136  0.17347510  0.10414944     0.18200
N3326       N  0.90589260  0.13265696  0.13587274    -0.88600
H3327       H  0.02565031  0.14283770  0.09872896     0.35500
H3328       H  0.03445806  0.17991856  0.09666142     0.40600
H3329       H  0.88761686  0.11084409  0.13151295     0.40300
H3330       H  0.89913392  0.14858589  0.13114485     0.35100
C3331       C  0.85698830  0.04660302  0.12592150    -0.26600
C3332       C  0.88892244  0.05643023  0.12423665    -0.14700
C3333       C  0.90066436  0.05353185  0.10417819     0.36000
C3334       C  0.88073713  0.04227636  0.08613613    -0.26000
C3335       C  0.84896385  0.03335511  0.08773435    -0.15300
C3336       C  0.83704595  0.03508150  0.10802283     0.37100
N3337       N  0.80450688  0.02453866  0.11068248    -0.89500
H3338       H  0.84739340  0.04790554  0.14133457     0.18200
H3339       H  0.89033683  0.04095727  0.07073610     0.18200
N3340       N  0.93250139  0.06104440  0.10214071    -0.88600
H3341       H  0.80193236  0.54037772  0.11702316     0.35500
H3342       H  0.79519994  0.50442380  0.12286411     0.40600
H3343       H  0.93272497  0.04113226  0.09701767     0.40300
H3344       H  0.94279551  0.07769477  0.09004053     0.35100
C3345       C  0.89696228  0.99339653  0.22363888    -0.26600
C3346       C  0.88593599  0.00380920  0.24091648    -0.14700
C3347       C  0.88170869  0.02966531  0.23755123     0.36000
C3348       C  0.88967318  0.04483559  0.21757551    -0.26000
C3349       C  0.90158153  0.03493769  0.20079541    -0.15300
C3350       C  0.90433616  0.00836463  0.20366379     0.37100
N3351       N  0.91434203  0.99598813  0.18655387    -0.89500
H3352       H  0.89954144  0.97315458  0.22548114     0.18200
H3353       H  0.88705524  0.06495745  0.21511869     0.18200
N3354       N  0.87715356  0.54319098  0.25609185    -0.88600
H3355       H  0.93609137  0.01323055  0.18109395     0.35500
H3356       H  0.89847049  0.98989598  0.17384714     0.40600
H3357       H  0.85304901  0.52948471  0.25823989     0.40300
H3358       H  0.88115237  0.56530328  0.25220933     0.35100
C3359       C  0.72821926  0.13921257  0.12085400    -0.26600
C3360       C  0.69781673  0.12669303  0.12890195    -0.14700
C3361       C  0.67554167  0.13079895  0.11745288     0.36000
C3362       C  0.68365507  0.14544598  0.09734515    -0.26000
C3363       C  0.71375735  0.15681402  0.08892211    -0.15300
C3364       C  0.73619337  0.15364667  0.10078888     0.37100
N3365       N  0.76689906  0.16459619  0.09235064    -0.89500
H3366       H  0.74584193  0.13757335  0.13014278     0.18200
H3367       H  0.66683073  0.14915354  0.08861662     0.18200
N3368       N  0.64539356  0.12137962  0.12663989    -0.88600
H3369       H  0.77053885  0.14569044  0.09111858     0.35500
H3370       H  0.78301746  0.18023425  0.10342808     0.40600
H3371       H  0.63340674  0.09736843  0.12847796     0.40300
H3372       H  0.63204192  0.12657276  0.11621917     0.35100
C3373       C  0.69130544  0.04967677  0.09372732    -0.26600
C3374       C  0.72341185  0.06065969  0.09088085    -0.14700
C3375       C  0.74380849  0.07515335  0.10843405     0.36000
C3376       C  0.73196420  0.07875588  0.12808987    -0.26000
C3377       C  0.70028833  0.06928768  0.13040131    -0.15300
C3378       C  0.67954283  0.05369166  0.11331697     0.37100
N3379       N  0.64659431  0.04141547  0.11607037    -0.89500
H3380       H  0.67512865  0.03752990  0.08070900     0.18200
H3381       H  0.74792380  0.09069017  0.14126998     0.18200
N3382       N  0.77666725  0.08705258  0.10632265    -0.88600
H3383       H  0.63443136  0.02947030  0.10224125     0.35500
H3384       H  0.64281682  0.06010465  0.11775837     0.40600
H3385       H  0.78344398  0.07691215  0.11828117     0.40300
H3386       H  0.78804331  0.11088704  0.10938506     0.35100
C3387       C  0.68481360  0.04921871  0.21749646    -0.26600
C3388       C  0.66219351  0.05226671  0.20582080    -0.14700
C3389       C  0.63044361  0.03436917  0.21171820     0.36000
C3390       C  0.62233669  0.01471072  0.22952017    -0.26000
C3391       C  0.64493741  0.01197651  0.24154887    -0.15300
C3392       C  0.67655404  0.02918316  0.23526704     0.37100
N3393       N  0.70005737  0.02602289  0.24672539    -0.89500
H3394       H  0.70903431  0.06246308  0.21259703     0.18200
H3395       H  0.59834540  0.50029601  0.23195016     0.18200
N3396       N  0.60569270  0.03469326  0.19977237    -0.88600
H3397       H  0.72209839  0.04039714  0.24008233     0.35500
H3398       H  0.69851894  0.50884530  0.24513814     0.40600
H3399       H  0.61377630  0.04834159  0.18598766     0.40300
H3400       H  0.59574990  0.04446973  0.20967349     0.35100
C3401       C  0.54211515  0.21975902  0.46279362    -0.26600
C3402       C  0.51535527  0.22257417  0.46142033    -0.14700
C3403       C  0.49491006  0.20920839  0.44388689     0.36000
C3404       C  0.50247076  0.19453660  0.42747200    -0.26000
C3405       C  0.52994674  0.19257029  0.42832398    -0.15300
C3406       C  0.54972216  0.20512205  0.44659218     0.37100
N3407       N  0.57743905  0.20317709  0.44946537    -0.89500
H3408       H  0.55727520  0.22904045  0.47672331     0.18200
H3409       H  0.48701531  0.18514639  0.41372092     0.18200
N3410       N  0.96791232  0.21223407  0.44330694    -0.88600
H3411       H  0.59375275  0.21654464  0.43774512     0.35500
H3412       H  0.57174743  0.18001732  0.44798784     0.40600
H3413       H  0.95374940  0.19910907  0.45608329     0.40300
H3414       H  0.95559545  0.20190468  0.42915019     0.35100
C3415       C  0.70476777  0.22037650  0.42535927    -0.26600
C3416       C  0.68376586  0.23141837  0.42257932    -0.14700
C3417       C  0.67828043  0.24630233  0.44017349     0.36000
C3418       C  0.69259103  0.24830191  0.46020058    -0.26000
C3419       C  0.71330364  0.23702854  0.46281771    -0.15300
C3420       C  0.71946902  0.22298198  0.44524152     0.37100
N3421       N  0.74083067  0.21154102  0.44767575    -0.89500
H3422       H  0.70904410  0.20869534  0.41216699     0.18200
H3423       H  0.68851675  0.25974450  0.47365248     0.18200
N3424       N  0.65850424  0.25959771  0.43764966    -0.88600
H3425       H  0.74325308  0.20223002  0.43316848     0.35500
H3426       H  0.73111174  0.19334285  0.45873713     0.40600
H3427       H  0.66916919  0.27760359  0.42649715     0.40300
H3428       H  0.65694935  0.26962566  0.45208207     0.35100
C3429       C  0.99674268  0.08941323  0.22804511    -0.26600
C3430       C  0.99061793  0.10563565  0.24414830    -0.14700
C3431       C  0.96855435  0.11532868  0.23967191     0.36000
C3432       C  0.95395845  0.10904456  0.21950828    -0.26000
C3433       C  0.96024392  0.09282663  0.20369206    -0.15300
C3434       C  0.98178809  0.08298952  0.20798982     0.37100
N3435       N  0.98884892  0.06678036  0.19188283    -0.89500
H3436       H  0.01364137  0.08199136  0.23084704     0.18200
H3437       H  0.93719304  0.11650640  0.21623915     0.18200
N3438       N  0.46802350  0.13956533  0.25132329    -0.88600
H3439       H  0.01269314  0.07981233  0.18848896     0.35500
H3440       H  0.98458540  0.04571330  0.19845088     0.40600
H3441       H  0.48965445  0.15872088  0.25521339     0.40300
H3442       H  0.45695302  0.12743996  0.26531593     0.35100
C3443       C  0.67920054  0.12131585  0.22335105    -0.26600
C3444       C  0.66151422  0.11276960  0.20438750    -0.14700
C3445       C  0.63659503  0.11871968  0.20246239     0.36000
C3446       C  0.62991327  0.13331602  0.21935168    -0.26000
C3447       C  0.64771278  0.14225500  0.23837351    -0.15300
C3448       C  0.67242239  0.13562763  0.24047961     0.37100
N3449       N  0.69004172  0.14258317  0.26015919    -0.89500
H3450       H  0.69849935  0.11693094  0.22473868     0.18200
H3451       H  0.61047909  0.13742909  0.21760468     0.18200
N3452       N  0.61775794  0.10958316  0.18338728    -0.88600
H3453       H  0.70769390  0.13692671  0.25880667     0.35500
H3454       H  0.67493026  0.12820763  0.27214227     0.40600
H3455       H  0.61886429  0.12935252  0.17670334     0.40300
H3456       H  0.59464281  0.09446062  0.18786955     0.35100
O3457       O  0.52809517  0.63459145  0.33039422    -0.88600
C3458       C  0.59264892  0.69703212  0.28707032     0.87400
Mg3459     Mg  0.52281658  0.64782853  0.36266460     1.58100
O3460       O  0.61239862  0.64439608  0.30986006    -0.88300
O3461       O  0.53852576  0.60236140  0.31327794    -0.75700
C3462       C  0.66478553  0.72066447  0.40309609     0.92500
O3463       O  0.55310931  0.70841741  0.32638574    -0.75500
O3464       O  0.63864647  0.71967440  0.40401651    -0.83000
Mg3465     Mg  0.52923319  0.66507519  0.30494506     1.58000
C3466       C  0.70268425  0.67805828  0.33198841     0.92400
O3467       O  0.50272907  0.62626820  0.27983545    -0.81300
H3468       H  0.60371210  0.60103679  0.31417454    -0.06600
C3469       C  0.65159938  0.72972022  0.33922149     0.87300
O3470       O  0.55358607  0.62946306  0.37676758    -0.75800
O3471       O  0.57371506  0.67147195  0.29448505    -0.88500
O3472       O  0.68868343  0.67767655  0.31481191    -0.81300
C3473       C  0.63780468  0.65685262  0.25676410     0.92500
C3474       C  0.51109058  0.61681238  0.26338119     0.92400
Mg3475     Mg  0.64621831  0.67275887  0.36140924     1.58000
O3476       O  0.67305371  0.71179958  0.38629386    -0.81300
O3477       O  0.62272576  0.62928932  0.34009142    -0.75500
O3478       O  0.60922716  0.64952387  0.25842113    -0.81300
O3479       O  0.98312023  0.65966650  0.31606876    -0.83100
O3480       O  0.56616288  0.68361030  0.40759412    -0.81400
C3481       C  0.61282918  0.62404430  0.32085687     0.86800
O3482       O  0.60172486  0.66586992  0.37142220    -0.88500
O3483       O  0.64685126  0.70316390  0.33608702    -0.88600
O3484       O  0.63676494  0.73545972  0.35355260    -0.75700
Mg3485     Mg  0.57505032  0.62987606  0.28715174     1.58000
O3486       O  0.65737148  0.67230800  0.27143335    -0.83100
H3487       H  0.50664580  0.58940380  0.33733700    -0.06800
O3488       O  0.56282440  0.69303278  0.35676213    -0.88300
H3489       H  0.57221679  0.73660293  0.35232351    -0.06600
H3490       H  0.59116021  0.62641752  0.38652764    -0.06800
C3491       C  0.56283027  0.71354288  0.34567362     0.86800
C3492       C  0.52346675  0.60808356  0.32740014     0.87400
C3493       C  0.58275879  0.64019850  0.37866561     0.87400
H3494       H  0.66837765  0.74843068  0.32928318    -0.06800
O3495       O  0.62180429  0.70803110  0.28928852    -0.75800
Mg3496     Mg  0.60026229  0.70686315  0.37955079     1.58000
H3497       H  0.58421569  0.71055785  0.27888128    -0.06800
C3498       C  0.97204449  0.66006244  0.33447985     0.92400
O3499       O  0.51827673  0.66554295  0.39530059    -0.83000
C3500       C  0.53877378  0.67945353  0.40980092     0.92500
O3501       O  0.53680276  0.61687601  0.26290883    -0.83000
Mg3502     Mg  0.65218514  0.68966425  0.30389117     1.58200
O3503       O  0.48535970  0.65896909  0.35192704    -0.81300
O3504       O  0.69253564  0.67911016  0.35058693    -0.83000
C3505       C  0.67111463  0.60279408  0.18569695     0.02000
C3506       C  0.67291936  0.57526774  0.18681901     0.02000
C3507       C  0.68323166  0.56561713  0.16885724    -0.18500
C3508       C  0.69151343  0.58267555  0.14978087     0.02000
C3509       C  0.68974948  0.61008383  0.14871043     0.02000
C3510       C  0.67975951  0.61990449  0.16659106    -0.18500
H3511       H  0.67905910  0.64130232  0.16568807     0.04000
H3512       H  0.68427829  0.54439677  0.16961870     0.04000
C3513       C  0.94262892  0.58288824  0.18329824     0.02000
C3514       C  0.91515756  0.55380426  0.18163570     0.02000
C3515       C  0.89854438  0.54519926  0.16220850    -0.18500
C3516       C  0.90824394  0.56528546  0.14436817     0.02000
C3517       C  0.93510724  0.59528881  0.14642502     0.02000
C3518       C  0.95214585  0.60339490  0.16583910    -0.18500
H3519       H  0.97284491  0.62602898  0.16746510     0.04000
H3520       H  0.87734146  0.52289504  0.16112210     0.04000
O3521       O  0.64375452  0.95083458  0.33829635    -0.88600
C3522       C  0.56970797  0.92594576  0.37885246     0.87400
Mg3523     Mg  0.64868458  0.97439757  0.30853338     1.58100
O3524       O  0.56733351  0.86391372  0.34963272    -0.88300
O3525       O  0.64130063  0.90833901  0.35010604    -0.75700
C3526       C  0.51136826  0.89221384  0.25908194     0.92500
O3527       O  0.60538966  0.98686458  0.34614240    -0.75500
O3528       O  0.53390885  0.92004783  0.26047739    -0.83000
Mg3529     Mg  0.63357776  0.97043950  0.36611668     1.58000
C3530       C  0.98211701  0.80029976  0.32008938     0.92400
O3531       O  0.66247069  0.95965250  0.38896417    -0.81300
H3532       H  0.58521475  0.83687833  0.34208052    -0.06600
C3533       C  0.51587250  0.89988116  0.32405357     0.87300
O3534       O  0.62804797  0.92855585  0.28943736    -0.75800
O3535       O  0.59296935  0.92594591  0.37165421    -0.88500
O3536       O  0.49392583  0.81139970  0.33870005    -0.81300
C3537       C  0.53658847  0.84028081  0.40282828     0.92500
C3538       C  0.65938919  0.93929767  0.40249530     0.92400
Mg3539     Mg  0.53627338  0.86219929  0.29713220     1.58000
O3540       O  0.50702432  0.87240147  0.27352491    -0.81300
O3541       O  0.56437052  0.84574172  0.31711581    -0.75500
O3542       O  0.56472117  0.86228641  0.40112141    -0.81300
O3543       O  0.67738001  0.51765262  0.36019853    -0.83100
O3544       O  0.60648172  0.97064465  0.26227157    -0.81400
C3545       C  0.57260020  0.84817980  0.33670992     0.86800
O3546       O  0.57728881  0.90665020  0.29134832    -0.88500
O3547       O  0.52656507  0.88218605  0.32509047    -0.88600
O3548       O  0.52838618  0.92392131  0.31230726    -0.75700
Mg3549     Mg  0.60123242  0.88727826  0.37463730     1.58000
O3550       O  0.51735960  0.83335877  0.38726584    -0.83100
H3551       H  0.67411633  0.93764657  0.32905686    -0.06800
O3552       O  0.60274903  0.96894636  0.31357036    -0.88300
H3553       H  0.58443353  0.99559425  0.32117171    -0.06600
H3554       H  0.59833345  0.88802009  0.27447357    -0.06800
C3555       C  0.59719372  0.98443830  0.32653179     0.86800
C3556       C  0.65414466  0.93285543  0.33886909     0.87400
C3557       C  0.60087339  0.90692706  0.28451867     0.87400
H3558       H  0.49578815  0.89514732  0.33371612    -0.06800
O3559       O  0.54236326  0.90449643  0.37421728    -0.75800
Mg3560     Mg  0.56900388  0.94515317  0.28805284     1.58000
H3561       H  0.57269474  0.94500737  0.38891489    -0.06800
C3562       C  0.68932129  0.53308586  0.34312958     0.92400
O3563       O  0.65351231  0.99938990  0.27703101    -0.83000
C3564       C  0.63475581  0.99256885  0.26124088     0.92500
O3565       O  0.63684068  0.91155863  0.40130398    -0.83000
Mg3566     Mg  0.52189247  0.85874512  0.35528246     1.58200
O3567       O  0.67801941  0.52239103  0.32449842    -0.81300
O3568       O  0.99372497  0.81484587  0.30268238    -0.83000
O3569       O  0.81084010  0.85789089  0.34298048    -0.88600
C3570       C  0.86644744  0.93516601  0.38021146     0.87400
Mg3571     Mg  0.82521062  0.85236538  0.31170915     1.58100
O3572       O  0.80353450  0.93689698  0.35504531    -0.88300
O3573       O  0.77318011  0.86308492  0.35720077    -0.75700
C3574       C  0.87673968  0.98573761  0.26140137     0.92500
O3575       O  0.88747151  0.89600203  0.34522799    -0.75500
O3576       O  0.87979830  0.96201508  0.26286426    -0.83000
Mg3577     Mg  0.84603039  0.87044188  0.36800439     1.58000
C3578       C  0.82413506  0.52225428  0.32494427     0.92400
O3579       O  0.81115306  0.84449671  0.39414673    -0.81300
H3580       H  0.75788242  0.92117884  0.35113504    -0.06600
C3581       C  0.88791183  0.98522550  0.32622492     0.87300
O3582       O  0.79785949  0.87356633  0.29574294    -0.75800
O3583       O  0.84292796  0.91172224  0.37359844    -0.88500
O3584       O  0.82143927  0.00952618  0.34393368    -0.81300
C3585       C  0.81524813  0.96755663  0.40801830     0.92500
C3586       C  0.79614199  0.84938305  0.40875282     0.92400
Mg3587     Mg  0.82713995  0.96649317  0.30233337     1.58000
O3588       O  0.86472287  0.99331794  0.27669092    -0.81300
O3589       O  0.78429046  0.94113261  0.32454521    -0.75500
O3590       O  0.81529812  0.94215148  0.40636080    -0.81300
O3591       O  0.84833608  0.82612533  0.36201265    -0.83100
O3592       O  0.85181357  0.89184244  0.26468065    -0.81400
C3593       C  0.78092788  0.93261197  0.34407190     0.86800
O3594       O  0.82744873  0.92403559  0.29704180    -0.88500
O3595       O  0.85997103  0.97697608  0.32845580    -0.88600
O3596       O  0.89686282  0.97076198  0.31383525    -0.75700
Mg3597     Mg  0.79692798  0.90450831  0.38036596     1.58000
O3598       O  0.82327735  0.98625862  0.39218776    -0.83100
H3599       H  0.76586904  0.82812312  0.33683201    -0.06800
O3600       O  0.86557051  0.89752524  0.31532756    -0.88300
H3601       H  0.91153473  0.91405667  0.31755574    -0.06600
H3602       H  0.78508989  0.90340378  0.28347904    -0.06800
C3603       C  0.88908769  0.90274109  0.32547872     0.86800
C3604       C  0.78273090  0.84854687  0.34549576     0.87400
C3605       C  0.80286941  0.90069488  0.29166171     0.87400
H3606       H  0.90512723  0.00485458  0.33537507    -0.06800
O3607       O  0.87074497  0.96215257  0.37661495    -0.75800
Mg3608     Mg  0.87228317  0.92952873  0.29019316     1.58000
H3609       H  0.88382305  0.93269181  0.38915409    -0.06800
C3610       C  0.84886732  0.81352197  0.34426709     0.92400
O3611       O  0.84324778  0.84774807  0.27903128    -0.83000
C3612       C  0.85130259  0.86617056  0.26313765     0.92500
O3613       O  0.78989381  0.87115290  0.40736996    -0.83000
Mg3614     Mg  0.84327447  0.98227875  0.35947566     1.58200
O3615       O  0.84582969  0.82368936  0.32611296    -0.81300
O3616       O  0.82634407  0.51001047  0.30753913    -0.83000
C3617       C  0.92987549  0.84697051  0.18307005     0.02000
C3618       C  0.90070673  0.84564567  0.18437334     0.02000
C3619       C  0.88169164  0.83802377  0.16621029    -0.18500
C3620       C  0.89018898  0.82998664  0.14687985     0.02000
C3621       C  0.91787567  0.82841893  0.14563956     0.02000
C3622       C  0.93799508  0.83774250  0.16370040    -0.18500
H3623       H  0.95979581  0.83759813  0.16274189     0.04000
H3624       H  0.85972337  0.83790237  0.16721716     0.04000
O3625       O  0.71772625  0.52519460  0.00640233    -0.88600
C3626       C  0.74098381  0.97658870  0.04688699     0.87400
Mg3627     Mg  0.69055956  0.50610724  0.97758491     1.58100
O3628       O  0.80376408  0.53039675  0.01609547    -0.88300
O3629       O  0.76238860  0.56329668  0.01797046    -0.75700
C3630       C  0.76044572  0.94012938  0.92978650     0.92500
O3631       O  0.67627677  0.95316397  0.01674504    -0.75500
O3632       O  0.73399053  0.93834270  0.93097806    -0.83000
Mg3633     Mg  0.69864338  0.00007029  0.03441053     1.58000
C3634       C  0.86075547  0.50113592  0.98447685     0.92400
O3635       O  0.71495665  0.54177509  0.05584996    -0.81300
H3636       H  0.83197545  0.57421183  0.00687877    -0.06600
C3637       C  0.75811710  0.94219468  0.99420375     0.87300
O3638       O  0.73498836  0.52700112  0.95681131    -0.75800
O3639       O  0.74195917  0.99953225  0.03858010    -0.88500
O3640       O  0.85201179  0.50396661  0.00328426    -0.81300
C3641       C  0.82879266  0.52181278  0.06845697     0.92500
C3642       C  0.73408260  0.55210201  0.07149020     0.92400
Mg3643     Mg  0.79739623  0.49596805  0.96448984     1.58000
O3644       O  0.77960034  0.95063383  0.94538352    -0.81300
O3645       O  0.81888728  0.54257359  0.98266565    -0.75500
O3646       O  0.80709935  0.52856698  0.06769326    -0.81300
O3647       O  0.65321034  0.00083757  0.03041029    -0.83100
O3648       O  0.68675845  0.96241965  0.93220270    -0.81400
C3649       C  0.81894087  0.55004119  0.00227238     0.86800
O3650       O  0.75382485  0.49595422  0.96042245    -0.88500
O3651       O  0.77839311  0.96991983  0.99363015    -0.88600
O3652       O  0.73304163  0.93152021  0.98328793    -0.75700
Mg3653     Mg  0.78275785  0.54259971  0.04203649     1.58000
O3654       O  0.83497258  0.50985941  0.05236823    -0.83100
H3655       H  0.73424563  0.56898834  0.99688318    -0.06800
O3656       O  0.69171409  0.96461228  0.98338349    -0.88300
H3657       H  0.66225953  0.92117174  0.99272795    -0.06600
H3658       H  0.77395765  0.53324987  0.94142956    -0.06800
C3659       C  0.67593910  0.94534347  0.99722241     0.86800
C3660       C  0.73768092  0.55303156  0.00668872     0.87400
C3661       C  0.75510320  0.51913664  0.95231663     0.87400
H3662       H  0.76156052  0.92671113  0.00453003    -0.06800
O3663       O  0.76164914  0.96926503  0.04279734    -0.75800
Mg3664     Mg  0.71212969  0.95061801  0.95840390     1.58000
H3665       H  0.72210765  0.96237427  0.05773052    -0.06800
C3666       C  0.63641521  0.99603518  0.01379748     0.92400
O3667       O  0.66196061  0.98544898  0.94591499    -0.83000
C3668       C  0.66637941  0.97088766  0.93063802     0.92500
O3669       O  0.76042524  0.55357086  0.07026332    -0.83000
Mg3670     Mg  0.80619358  0.99029896  0.02184915     1.58200
O3671       O  0.64515876  0.99310717  0.99502239    -0.81300
O3672       O  0.84359790  0.49593820  0.96798667    -0.83000
O3673       O  0.77796427  0.80838662  0.99331656    -0.88600
C3674       C  0.77375771  0.73888221  0.95470714     0.87400
Mg3675     Mg  0.79557422  0.81414810  0.02567530     1.58100
O3676       O  0.70202251  0.72437862  0.97595198    -0.88300
O3677       O  0.73494162  0.79773443  0.97637436    -0.75700
C3678       C  0.72365133  0.67689353  0.06919765     0.92500
O3679       O  0.82599010  0.78103761  0.99197674    -0.75500
O3680       O  0.74967690  0.70178111  0.06891389    -0.83000
Mg3681     Mg  0.80718534  0.80375469  0.96901808     1.58000
C3682       C  0.64013030  0.63714442  0.99997508     0.92400
O3683       O  0.79606715  0.82850504  0.94206665    -0.81300
H3684       H  0.66801391  0.73495465  0.97730812    -0.06600
C3685       C  0.74357631  0.68348983  0.00693255     0.87300
O3686       O  0.74591213  0.78666006  0.03957186    -0.75800
O3687       O  0.76829537  0.75947627  0.96049307    -0.87900
O3688       O  0.65468546  0.64937382  0.98267805    -0.81300
C3689       C  0.69085288  0.69645623  0.92402559     0.92500
C3690       C  0.77634074  0.82043273  0.92674080     0.92400
Mg3691     Mg  0.69287212  0.69402622  0.02774975     1.58000
O3692       O  0.70382928  0.66911619  0.05403814    -0.81300
O3693       O  0.67444525  0.71701263  0.00483622    -0.75500
O3694       O  0.71492071  0.72315202  0.92556967    -0.81300
O3695       O  0.84792643  0.85001589  0.97899186    -0.83100
O3696       O  0.78429762  0.77278916  0.07138954    -0.81400
C3697       C  0.68078892  0.72558357  0.98545361     0.86800
O3698       O  0.73210710  0.73780615  0.03599092    -0.88500
O3699       O  0.72194915  0.68869787  0.00371329    -0.88600
O3700       O  0.76557682  0.69974184  0.01997677    -0.75700
Mg3701     Mg  0.72601242  0.75907438  0.95216399     1.58000
O3702       O  0.68302965  0.67716445  0.93926319    -0.83100
H3703       H  0.75552836  0.83181422  0.99884077    -0.06800
O3704       O  0.79834032  0.77298122  0.02093491    -0.88300
H3705       H  0.83271210  0.76293642  0.01933122    -0.06600
H3706       H  0.70436716  0.75134454  0.04989056    -0.06800
C3707       C  0.81970987  0.77216531  0.01131873     0.86800
C3708       C  0.75648732  0.81370635  0.98980515     0.87400
C3709       C  0.72649371  0.75808430  0.04225716     0.87400
H3710       H  0.74438082  0.66536640  0.99780873    -0.06800
O3711       O  0.75417877  0.71037845  0.95771422    -0.75800
Mg3712     Mg  0.77423004  0.73795529  0.04433476     1.58000
H3713       H  0.79586743  0.74527149  0.94717617    -0.06800
C3714       C  0.85888960  0.86066025  0.99760022     0.92400
O3715       O  0.81671114  0.81926658  0.05869218    -0.83000
C3716       C  0.80798529  0.79951594  0.07375806     0.92500
O3717       O  0.75058827  0.79515457  0.92706403    -0.83000
Mg3718     Mg  0.70437189  0.68279622  0.97170310     1.58200
O3719       O  0.84495166  0.84754260  0.01486736    -0.81300
O3720       O  0.65113693  0.64821434  0.01846815    -0.83000
O3721       O  0.52667548  0.71951889  0.99612594    -0.88600
C3722       C  0.96873403  0.72510285  0.95248793     0.87400
Mg3723     Mg  0.51240947  0.70264153  0.02872425     1.58100
O3724       O  0.52544340  0.79582507  0.97471854    -0.88300
O3725       O  0.56282881  0.75887995  0.97846914    -0.75700
C3726       C  0.94623284  0.77915605  0.06878014     0.92500
O3727       O  0.95225784  0.67524636  0.99253570    -0.75500
O3728       O  0.94346260  0.75228886  0.07000030    -0.83000
Mg3729     Mg  0.99534151  0.68970197  0.97123487     1.58000
C3730       C  0.49816922  0.85889305  0.99568203     0.92400
O3731       O  0.53378753  0.69823637  0.94523947    -0.81300
H3732       H  0.57031159  0.82624396  0.98053581    -0.06600
C3733       C  0.93943555  0.75718914  0.00493188     0.87300
O3734       O  0.53441254  0.75169457  0.04271102    -0.75800
O3735       O  0.99393298  0.72955696  0.95957870    -0.88500
O3736       O  0.49636998  0.84379452  0.97872261    -0.81300
C3737       C  0.51341675  0.80881584  0.92109442     0.92500
C3738       C  0.54670902  0.71601122  0.92908353     0.92400
Mg3739     Mg  0.49845490  0.80590752  0.02689809     1.58000
O3740       O  0.95961573  0.79677160  0.05266975    -0.81300
O3741       O  0.54144343  0.81999260  0.00560127    -0.75500
O3742       O  0.52146159  0.78828222  0.92317590    -0.81300
O3743       O  0.99735047  0.64796965  0.98385127    -0.83100
O3744       O  0.96981010  0.70487055  0.07514388    -0.81400
C3745       C  0.54660854  0.81467953  0.98647148     0.86800
O3746       O  0.49971488  0.76606943  0.03871854    -0.88500
O3747       O  0.96724098  0.77631845  0.00212304    -0.88600
O3748       O  0.93083949  0.73656306  0.01938659    -0.75700
Mg3749     Mg  0.53770270  0.77054391  0.95203122     1.58000
O3750       O  0.49855515  0.81374941  0.93582355    -0.83100
H3751       H  0.57195543  0.73801696  0.00322035    -0.06800
O3752       O  0.96762112  0.69899028  0.02362539    -0.88300
H3753       H  0.92290123  0.66851489  0.01737304    -0.06600
H3754       H  0.54020490  0.79258351  0.05385967    -0.06800
C3755       C  0.94671421  0.68026029  0.01164666     0.86800
C3756       C  0.55445167  0.73847063  0.99305087     0.87400
C3757       C  0.52510517  0.77094362  0.04569669     0.87400
H3758       H  0.92207852  0.75766746  0.99461539    -0.06800
O3759       O  0.95984536  0.74471488  0.95539090    -0.75800
Mg3760     Mg  0.95498281  0.72415968  0.04614704     1.58000
H3761       H  0.95350087  0.70361131  0.94420506    -0.06800
C3762       C  0.99712190  0.63762788  0.00262218     0.92400
O3763       O  0.99566588  0.68204738  0.06286344    -0.83000
C3764       C  0.98031460  0.68625104  0.07762471     0.92500
O3765       O  0.54907875  0.74267702  0.92802883    -0.83000
Mg3766     Mg  0.98211850  0.79371772  0.96975297     1.58200
O3767       O  0.99779373  0.65207206  0.01965163    -0.81300
O3768       O  0.49764899  0.84843618  0.01445669    -0.83000
O3769       O  0.63312299  0.52276277  0.66941767    -0.88600
C3770       C  0.69599038  0.58989655  0.71038303     0.87400
Mg3771     Mg  0.64750067  0.51886710  0.63724049     1.58100
O3772       O  0.64051559  0.60564692  0.68742592    -0.88300
O3773       O  0.59944264  0.53232424  0.68547023    -0.75700
C3774       C  0.71786035  0.65892918  0.59621905     0.92500
O3775       O  0.70750015  0.54870839  0.67301754    -0.75500
O3776       O  0.71783829  0.63348407  0.59632848    -0.83000
Mg3777     Mg  0.66421735  0.52516636  0.69476954     1.58000
C3778       C  0.66942949  0.69510824  0.66621995     0.92400
O3779       O  0.62657821  0.49954119  0.72134499    -0.81300
H3780       H  0.59632324  0.59582209  0.68370698    -0.06600
C3781       C  0.72578899  0.64822782  0.66007206     0.87300
O3782       O  0.62673107  0.54773721  0.62358221    -0.75800
O3783       O  0.67018698  0.56956666  0.70377864    -0.88500
O3784       O  0.66617462  0.67942953  0.68308122    -0.81300
C3785       C  0.65501477  0.63077998  0.74126846     0.92500
C3786       C  0.61552157  0.50840814  0.73665437     0.92400
Mg3787     Mg  0.66832885  0.64088186  0.63687000     1.58000
O3788       O  0.70758587  0.66736265  0.61218548    -0.81300
O3789       O  0.62434006  0.61666064  0.65795966    -0.75500
O3790       O  0.65103462  0.60378934  0.73846474    -0.81300
O3791       O  0.65594712  0.97728227  0.68278493    -0.83100
O3792       O  0.68495339  0.56290718  0.59207077    -0.81400
C3793       C  0.61943980  0.60570601  0.67686668     0.86800
O3794       O  0.66251049  0.59658065  0.62731731    -0.88500
O3795       O  0.69878294  0.64299318  0.66236236    -0.88600
O3796       O  0.73241252  0.63310649  0.64663465    -0.75700
Mg3797     Mg  0.62789831  0.56990731  0.71071987     1.58000
O3798       O  0.66618042  0.65073089  0.72641778    -0.83100
H3799       H  0.58759667  0.49937382  0.66232994    -0.06800
O3800       O  0.69156940  0.55970886  0.64342783    -0.88300
H3801       H  0.73552449  0.56887643  0.64717943    -0.06600
H3802       H  0.62131988  0.58348155  0.61335350    -0.06800
C3803       C  0.71245713  0.55938665  0.65403730     0.86800
C3804       C  0.60601554  0.51710633  0.67206740     0.87400
C3805       C  0.63645947  0.57645665  0.62095780     0.87400
H3806       H  0.74405970  0.66549624  0.67015384    -0.06800
O3807       O  0.70516994  0.61857627  0.70804669    -0.75800
Mg3808     Mg  0.70504788  0.59629491  0.62066841     1.58000
H3809       H  0.71125804  0.58313807  0.71811049    -0.06800
C3810       C  0.66011735  0.96889067  0.66428668     0.92400
O3811       O  0.66361283  0.51459810  0.60370523    -0.83000
C3812       C  0.67657650  0.53455288  0.58888115     0.92500
O3813       O  0.61527263  0.53364724  0.73555070    -0.83000
Mg3814     Mg  0.68378195  0.64685080  0.69397411     1.58200
O3815       O  0.66406842  0.48534583  0.64816264    -0.81300
O3816       O  0.67460109  0.68725297  0.64781700    -0.83000
C3817       C  0.60411562  0.66353477  0.85380315     0.02000
C3818       C  0.57743290  0.66687330  0.85320665     0.02000
C3819       C  0.55993991  0.65959234  0.83388045    -0.18500
C3820       C  0.56968717  0.65022724  0.81525683     0.02000
C3821       C  0.59726305  0.64847356  0.81623908     0.02000
C3822       C  0.61368740  0.65450706  0.83545928    -0.18500
H3823       H  0.63504051  0.65337040  0.83593464     0.04000
H3824       H  0.53902423  0.66141408  0.83328359     0.04000
C3825       C  0.55913561  0.90073781  0.85308892     0.02000
C3826       C  0.58852451  0.92845969  0.85368250     0.02000
C3827       C  0.59884435  0.94762881  0.83536273    -0.18500
C3828       C  0.58055233  0.93960353  0.81662882     0.02000
C3829       C  0.55083165  0.91270160  0.81648732     0.02000
C3830       C  0.54052863  0.89345065  0.83452597    -0.18500
H3831       H  0.51812734  0.87223807  0.83391554     0.04000
H3832       H  0.62135622  0.96871496  0.83561082     0.04000
O3833       O  0.97339483  0.61214032  0.67042466    -0.88600
C3834       C  0.90868941  0.60531671  0.71417893     0.87400
Mg3835     Mg  0.97527001  0.63070609  0.63855181     1.58100
O3836       O  0.89509343  0.53583356  0.68946322    -0.88300
O3837       O  0.96938684  0.57147922  0.68644856    -0.75700
C3838       C  0.83216867  0.55828404  0.59903546     0.92500
O3839       O  0.94557276  0.65757855  0.67654616    -0.75500
O3840       O  0.85665846  0.58485563  0.59910476    -0.83000
Mg3841     Mg  0.97273320  0.64011007  0.69681898     1.58000
C3842       C  0.80285433  0.97317211  0.66882449     0.92400
O3843       O  0.00184557  0.62994744  0.72187581    -0.81300
H3844       H  0.90776075  0.50443733  0.68245461    -0.06600
C3845       C  0.84639983  0.57488284  0.66325218     0.87300
O3846       O  0.94758556  0.58195902  0.62388029    -0.75800
O3847       O  0.92980337  0.60081990  0.70780839    -0.88500
O3848       O  0.81907227  0.98580355  0.68556172    -0.81300
C3849       C  0.86927116  0.52127712  0.74372879     0.92500
C3850       C  0.99564362  0.61085508  0.73738331     0.92400
Mg3851     Mg  0.85604176  0.52819303  0.63834220     1.58000
O3852       O  0.82661834  0.53879652  0.61415426    -0.81300
O3853       O  0.88411964  0.51154968  0.65848632    -0.75500
O3854       O  0.89819478  0.54084137  0.74149056    -0.81300
O3855       O  0.51757004  0.67927974  0.68393608    -0.83100
O3856       O  0.92891233  0.62777608  0.59435528    -0.81400
C3857       C  0.89606250  0.51671958  0.67722435     0.86800
O3858       O  0.89826202  0.56782120  0.62757564    -0.88500
O3859       O  0.85463051  0.55531798  0.66481637    -0.88600
O3860       O  0.85920109  0.59691378  0.64987762    -0.75700
Mg3861     Mg  0.93223834  0.55904568  0.71277396     1.58000
O3862       O  0.84989422  0.51612495  0.72876617    -0.83100
H3863       H  0.99982145  0.59378706  0.66209797    -0.06800
O3864       O  0.93351269  0.63237528  0.64597528    -0.88300
H3865       H  0.92242491  0.66506842  0.65242720    -0.06600
H3866       H  0.91220746  0.54152496  0.61218660    -0.06800
C3867       C  0.93346593  0.65225772  0.65787885     0.86800
C3868       C  0.98185108  0.59282216  0.67253155     0.87400
C3869       C  0.91886054  0.56297996  0.62061977     0.87400
H3870       H  0.82849684  0.57367546  0.67387185    -0.06800
O3871       O  0.88008714  0.58572569  0.71085266    -0.75800
Mg3872     Mg  0.89577472  0.60962839  0.62324178     1.58000
H3873       H  0.91474275  0.62685206  0.72229162    -0.06800
C3874       C  0.52503944  0.69172395  0.66540628     0.92400
O3875       O  0.97786387  0.65162342  0.60589185    -0.83000
C3876       C  0.95775645  0.64704173  0.59154023     0.92500
O3877       O  0.97085806  0.58447989  0.73734704    -0.83000
Mg3878     Mg  0.85276094  0.53659644  0.69630628     1.58200
O3879       O  0.00820649  0.68048165  0.64923276    -0.81300
O3880       O  0.80990979  0.98619652  0.65048572    -0.83000
O3881       O  0.85636127  0.80532898  0.66134985    -0.88600
C3882       C  0.92862942  0.85303539  0.61979204     0.87400
Mg3883     Mg  0.84974999  0.82737475  0.68895099     1.58100
O3884       O  0.93467920  0.79719403  0.65125987    -0.88300
O3885       O  0.86045514  0.76556562  0.65055319    -0.75700
C3886       C  0.98432410  0.88877420  0.73715604     0.92500
O3887       O  0.88838084  0.87749333  0.64827618    -0.75500
O3888       O  0.96063262  0.89207728  0.73522952    -0.83000
Mg3889     Mg  0.86252276  0.82931431  0.63183085     1.58000
C3890       C  0.52213318  0.82782081  0.68079978     0.92400
O3891       O  0.83469688  0.78342581  0.61415990    -0.81300
H3892       H  0.91873382  0.75371561  0.66132505    -0.06600
C3893       C  0.98209449  0.88693766  0.67258350     0.87300
O3894       O  0.87158220  0.80557110  0.71064975    -0.75800
O3895       O  0.90625955  0.82991003  0.62773192    -0.88500
O3896       O  0.00802336  0.82047670  0.66336652    -0.81300
C3897       C  0.96684113  0.80500312  0.59798182     0.92500
C3898       C  0.84345802  0.77585254  0.59718392     0.92400
Mg3899     Mg  0.96510001  0.83364394  0.70226755     1.58000
O3900       O  0.99295558  0.87748044  0.72206471    -0.81300
O3901       O  0.93887774  0.78640005  0.68478946    -0.75500
O3902       O  0.93826123  0.79713252  0.60009104    -0.81300
O3903       O  0.81591400  0.82718832  0.63614202    -0.83100
O3904       O  0.89064773  0.87058167  0.73296038    -0.81400
C3905       C  0.93041965  0.77808724  0.66542175     0.86800
O3906       O  0.92190202  0.83466372  0.70647424    -0.88500
O3907       O  0.97260392  0.85881456  0.67303476    -0.88600
O3908       O  0.96865908  0.89881720  0.68319418    -0.75700
Mg3909     Mg  0.90097105  0.78448585  0.62578272     1.58000
O3910       O  0.98602267  0.81698598  0.61358333    -0.83100
H3911       H  0.82817407  0.76239456  0.67225733    -0.06800
O3912       O  0.89427779  0.86739271  0.68162735    -0.88300
H3913       H  0.90912759  0.91064062  0.67142835    -0.06600
H3914       H  0.90338643  0.79822353  0.72631583    -0.06800
C3915       C  0.89770247  0.88623403  0.66746956     0.86800
C3916       C  0.84740974  0.77727937  0.66187314     0.87400
C3917       C  0.89938212  0.81237876  0.71504041     0.87400
H3918       H  0.00194807  0.90169903  0.66262500    -0.06800
O3919       O  0.95654219  0.86024551  0.62417344    -0.75800
Mg3920     Mg  0.92777990  0.88068756  0.70724954     1.58000
H3921       H  0.92437488  0.86764767  0.60912182    -0.06800
C3922       C  0.80675036  0.83684365  0.65186491     0.92400
O3923       O  0.84340721  0.85077908  0.71866710    -0.83000
C3924       C  0.86235516  0.86422133  0.73413948     0.92500
O3925       O  0.86799958  0.77380785  0.59742330    -0.83000
Mg3926     Mg  0.97915370  0.83810782  0.64466952     1.58200
O3927       O  0.82198295  0.84554694  0.66952367    -0.81300
O3928       O  0.51153209  0.83540770  0.69692397    -0.83000
C3929       C  0.80793545  0.89194155  0.84855989     0.02000
C3930       C  0.80514413  0.91871139  0.84957464     0.02000
C3931       C  0.81411862  0.93879973  0.83205298    -0.18500
C3932       C  0.82579142  0.93255194  0.81328829     0.02000
C3933       C  0.82737565  0.90494450  0.81179172     0.02000
C3934       C  0.81808312  0.88476390  0.82948458    -0.18500
H3935       H  0.81889064  0.86343380  0.82849129     0.04000
H3936       H  0.81269124  0.95979963  0.83321908     0.04000
C3937       C  0.50605629  0.73493502  0.47987264     0.02000
C3938       C  0.50811413  0.76429759  0.48003043     0.02000
C3939       C  0.50296202  0.77568878  0.49948809    -0.18500
C3940       C  0.99526833  0.76077084  0.51936035     0.02000
C3941       C  0.99310075  0.73128585  0.51924237     0.02000
C3942       C  0.49856359  0.71764726  0.49885859    -0.18500
H3943       H  0.49701990  0.69512441  0.49861922     0.04000
H3944       H  0.50470768  0.79827922  0.49969477     0.04000
C3945       C  0.73590837  0.74267538  0.48180635     0.02000
C3946       C  0.76498416  0.77042194  0.48290556     0.02000
C3947       C  0.78465895  0.77633897  0.50062663    -0.18500
C3948       C  0.77534162  0.75538576  0.51765631     0.02000
C3949       C  0.74565248  0.72847512  0.51725618     0.02000
C3950       C  0.72626819  0.72189190  0.49915653    -0.18500
H3951       H  0.70369870  0.70090493  0.49868442     0.04000
H3952       H  0.80706393  0.79753223  0.50130801     0.04000
C3953       C  0.73169453  0.98658317  0.48034424     0.02000
C3954       C  0.76347277  0.99531125  0.48299215     0.02000
C3955       C  0.77851238  0.00884188  0.50252983    -0.18500
C3956       C  0.76293285  0.51509925  0.51898514     0.02000
C3957       C  0.73123860  0.50650540  0.51617069     0.02000
C3958       C  0.71606878  0.99271598  0.49679247    -0.18500
H3959       H  0.69204040  0.98697288  0.49443557     0.04000
H3960       H  0.80249949  0.01452380  0.50495324     0.04000
O3961       O  0.54112630  0.98529310  0.98769211    -0.88600
C3962       C  0.96767590  0.94305377  0.03147084     0.87400
Mg3963     Mg  0.57576729  0.53310342  0.99177878     1.58100
O3964       O  0.94895439  0.96083997  0.98054183    -0.88300
O3965       O  0.00693666  0.95325370  0.96529339    -0.75700
C3966       C  0.49894179  0.61014311  0.00386448     0.92500
O3967       O  0.54284407  0.00050767  0.03841612    -0.75500
O3968       O  0.52378279  0.61111693  0.01049961    -0.83000
Mg3969     Mg  0.53137284  0.95833276  0.01689858     1.58000
C3970       C  0.89036621  0.00223626  0.98244875     0.92400
O3971       O  0.52126158  0.91235086  0.00211383    -0.81300
H3972       H  0.94310792  0.95451741  0.94869844    -0.06600
C3973       C  0.96394174  0.52368950  0.02889306     0.87300
O3974       O  0.55101558  0.54765360  0.96684330    -0.75800
O3975       O  0.98236738  0.94483012  0.01493549    -0.88500
O3976       O  0.89061929  0.97701665  0.98553397    -0.81300
C3977       C  0.88763278  0.89015983  0.99920778     0.92500
C3978       C  0.49855830  0.88839125  0.99381570     0.92400
Mg3979     Mg  0.96660671  0.53988548  0.98129822     1.58000
O3980       O  0.97521083  0.58439302  0.99708884    -0.81300
O3981       O  0.95613809  0.49827654  0.95959237    -0.75500
O3982       O  0.91337378  0.89066561  0.99684832    -0.81300
O3983       O  0.58171270  0.96994415  0.01771151    -0.83100
O3984       O  0.58536867  0.60779207  0.00175507    -0.81400
C3985       C  0.94843349  0.97007691  0.96224356     0.86800
O3986       O  0.51531811  0.55336349  0.98366544    -0.88500
O3987       O  0.95740486  0.51311133  0.01044000    -0.88600
O3988       O  0.49109009  0.54484130  0.03321983    -0.75700
Mg3989     Mg  0.96136163  0.92495119  0.98378894     1.58000
O3990       O  0.88573455  0.91447314  0.00185580    -0.83100
H3991       H  0.55375687  0.98391314  0.95731043    -0.06800
O3992       O  0.54923255  0.53752615  0.01791578    -0.88300
H3993       H  0.55472947  0.54357978  0.04978839    -0.06600
H3994       H  0.52377124  0.56204873  0.95223300    -0.06800
C3995       C  0.54939844  0.52807862  0.03620646     0.86800
C3996       C  0.53533579  0.97488209  0.96919281     0.87400
C3997       C  0.52981268  0.55497164  0.96706341     0.87400
H3998       H  0.94603574  0.51459809  0.04114192    -0.06800
O3999       O  0.94635237  0.95019925  0.03159455    -0.75800
Mg4000     Mg  0.53674559  0.57337732  0.01467879     1.58000
H4001       H  0.97364394  0.93597186  0.04632894    -0.06800
C4002       C  0.60666934  0.99569562  0.01542877     0.92400
O4003       O  0.61221121  0.58333458  0.99579027    -0.83000
C4004       C  0.61086167  0.60791085  0.99867620     0.92500
O4005       O  0.97378900  0.88689729  0.98783201    -0.83000
Mg4006     Mg  0.92184269  0.96468017  0.00646688     1.58200
O4007       O  0.60699516  0.52032322  0.01236771    -0.81300
O4008       O  0.91571279  0.52759149  0.98032075    -0.83000
O4009       O  0.87059412  0.64968827  0.31554473    -0.88600
C4010       C  0.80946990  0.61215189  0.36635006     0.87400
Mg4011     Mg  0.90878129  0.69698614  0.31444892     1.58100
O4012       O  0.78061654  0.63042151  0.31987550    -0.88300
O4013       O  0.83051666  0.61690545  0.29647408    -0.75700
C4014       C  0.84922540  0.78412457  0.34405946     0.92500
O4015       O  0.88577023  0.66705371  0.36591562    -0.75500
O4016       O  0.87480944  0.78407302  0.34601258    -0.83000
Mg4017     Mg  0.86700692  0.62376979  0.34457629     1.58000
C4018       C  0.73168736  0.67751643  0.33049236     0.92400
O4019       O  0.85003379  0.57630918  0.32825899    -0.81300
H4020       H  0.77032300  0.62591941  0.28846263    -0.06600
C4021       C  0.81362391  0.69682959  0.36777884     0.87300
O4022       O  0.88066076  0.71327126  0.29464769    -0.75800
O4023       O  0.81934048  0.61352966  0.34790319    -0.88500
O4024       O  0.73074915  0.65204980  0.33420906    -0.81300
C4025       C  0.71943973  0.56243268  0.34405275     0.92500
C4026       C  0.82420590  0.55171596  0.32425014     0.92400
Mg4027     Mg  0.80646898  0.71266052  0.32212640     1.58000
O4028       O  0.82353076  0.75956842  0.33965889    -0.81300
O4029       O  0.78793008  0.66972778  0.30001051    -0.75500
O4030       O  0.74356486  0.56133656  0.33816944    -0.81300
O4031       O  0.91756662  0.63459756  0.34067093    -0.83100
O4032       O  0.92907556  0.77304281  0.32794955    -0.81400
C4033       C  0.77897119  0.64113123  0.30231608     0.86800
O4034       O  0.85364674  0.72282573  0.31808780    -0.88500
O4035       O  0.80194202  0.68503911  0.35023816    -0.88600
O4036       O  0.84226956  0.71722673  0.36942089    -0.75700
Mg4037     Mg  0.78948127  0.59223133  0.32004485     1.58000
O4038       O  0.72058017  0.58792232  0.34858983    -0.83100
H4039       H  0.87373322  0.64399626  0.28393597    -0.06800
O4040       O  0.89231515  0.70503776  0.34504752    -0.88300
H4041       H  0.90457493  0.71158504  0.37609854    -0.06600
H4042       H  0.85309331  0.73116704  0.28667328    -0.06800
C4043       C  0.89506126  0.69549016  0.36275857     0.86800
C4044       C  0.85917296  0.63713775  0.29814013     0.87400
C4045       C  0.86229999  0.72323097  0.29939111     0.87400
H4046       H  0.79927770  0.68932662  0.38208262    -0.06800
O4047       O  0.78978151  0.62068176  0.37052699    -0.75800
Mg4048     Mg  0.88350994  0.74296938  0.34598423     1.58000
H4049       H  0.81830242  0.60417715  0.37928141    -0.06800
C4050       C  0.94226939  0.65942559  0.33532745     0.92400
O4051       O  0.95008566  0.74621751  0.31409828    -0.83000
C4052       C  0.95199777  0.77159193  0.31988869     0.92500
O4053       O  0.79876950  0.55182331  0.32157205    -0.83000
Mg4054     Mg  0.76272880  0.63760890  0.34993251     1.58200
O4055       O  0.94196125  0.68336292  0.32886753    -0.81300
O4056       O  0.75694182  0.70265347  0.32698818    -0.83000
O4057       O  0.62141946  0.84422917  0.65539935    -0.88600
C4058       C  0.69160529  0.88608236  0.69987608     0.87400
Mg4059     Mg  0.58748369  0.79587729  0.65699570     1.58100
O4060       O  0.71567773  0.87215905  0.64929929    -0.88300
O4061       O  0.65625528  0.87642998  0.63285564    -0.75700
C4062       C  0.66728372  0.72325270  0.66787942     0.92500
O4063       O  0.61836392  0.82783068  0.70611844    -0.75500
O4064       O  0.64231470  0.72148770  0.67496392    -0.83000
Mg4065     Mg  0.62901444  0.86991484  0.68516757     1.58000
C4066       C  0.77644716  0.83556129  0.65090903     0.92400
O4067       O  0.63894183  0.91581507  0.67033472    -0.81300
H4068       H  0.72326271  0.88084372  0.61781201    -0.06600
C4069       C  0.70034402  0.80763266  0.69513306     0.87300
O4070       O  0.61412966  0.78358756  0.63214400    -0.75800
O4071       O  0.67804248  0.88416816  0.68278569    -0.88500
O4072       O  0.77519088  0.85903950  0.65766631    -0.81300
C4073       C  0.77475451  0.94278440  0.67043599     0.92500
C4074       C  0.66179578  0.94055345  0.66291736     0.92400
Mg4075     Mg  0.69990115  0.79467300  0.64696859     1.58000
O4076       O  0.69012293  0.74834167  0.66088629    -0.81300
O4077       O  0.71095513  0.83693186  0.62639904    -0.75500
O4078       O  0.74884638  0.94087416  0.66563181    -0.81300
O4079       O  0.57696768  0.85510648  0.68581715    -0.83100
O4080       O  0.57960074  0.72284913  0.66674613    -0.81400
C4081       C  0.71730993  0.86432044  0.63072684     0.86800
O4082       O  0.65062903  0.78014427  0.64952121    -0.88500
O4083       O  0.70721803  0.81967338  0.67718150    -0.88600
O4084       O  0.67287660  0.78634072  0.69940415    -0.75700
Mg4085     Mg  0.70094811  0.90570746  0.65233961     1.58000
O4086       O  0.77725083  0.91920152  0.67473930    -0.83100
H4087       H  0.61133831  0.84649083  0.62454171    -0.06800
O4088       O  0.61371689  0.79203006  0.68371318    -0.88300
H4089       H  0.60736960  0.78448560  0.71539634    -0.06600
H4090       H  0.64362463  0.77165220  0.61793151    -0.06800
C4091       C  0.61263611  0.80048230  0.70221730     0.86800
C4092       C  0.62865537  0.85547698  0.63721779     0.87400
C4093       C  0.63643143  0.77790107  0.63266917     0.87400
H4094       H  0.71785487  0.81613549  0.70768463    -0.06800
O4095       O  0.71355823  0.87995600  0.70087278    -0.75800
Mg4096     Mg  0.62802371  0.75789678  0.67988895     1.58000
H4097       H  0.68395456  0.89220577  0.71445915    -0.06800
C4098       C  0.55248117  0.82909377  0.68220879     0.92400
O4099       O  0.55139566  0.74549359  0.65984209    -0.83000
C4100       C  0.55359436  0.72160846  0.66338964     0.92500
O4101       O  0.68670037  0.94201279  0.65609924    -0.83000
Mg4102     Mg  0.74103899  0.86821178  0.67655875     1.58200
O4103       O  0.55374852  0.80509480  0.67679846    -0.81300
O4104       O  0.75205352  0.80993207  0.64623793    -0.83000
C4105       C  0.87150095  0.88240591  0.77234913    -0.26600
C4106       C  0.85233204  0.87406572  0.75391907    -0.14700
C4107       C  0.82548195  0.87737953  0.75443506     0.36000
C4108       C  0.81810247  0.88791252  0.77342927    -0.26000
C4109       C  0.83711140  0.89571318  0.79177425    -0.15300
C4110       C  0.86422622  0.89315871  0.79119956     0.37100
N4111       N  0.88484132  0.90244415  0.80949141    -0.89500
H4112       H  0.89239777  0.88052648  0.77212262     0.18200
H4113       H  0.79733770  0.89002439  0.77398492     0.18200
N4114       N  0.80606519  0.87062111  0.73568346    -0.88600
H4115       H  0.90489045  0.90130633  0.80585069     0.35500
H4116       H  0.87354307  0.88639494  0.82176843     0.40600
H4117       H  0.81918870  0.88707818  0.72397991     0.40300
H4118       H  0.78692235  0.87348455  0.73900652     0.35100
C4119       C  0.82975950  0.75398472  0.55996392    -0.26600
C4120       C  0.82568052  0.77058397  0.57683632    -0.14700
C4121       C  0.80678783  0.78424371  0.57309158     0.36000
C4122       C  0.79225655  0.78046186  0.55319861    -0.26000
C4123       C  0.79546071  0.76295873  0.53686419    -0.15300
C4124       C  0.81460774  0.74991232  0.54009942     0.37100
N4125       N  0.81847206  0.73234950  0.52329511    -0.89500
H4126       H  0.84452846  0.74387275  0.56221939     0.18200
H4127       H  0.77747192  0.79051055  0.55067272     0.18200
N4128       N  0.80215641  0.80255945  0.58888862    -0.88600
H4129       H  0.81154842  0.71022810  0.52924842     0.35500
H4130       H  0.84223994  0.74297410  0.51963957     0.40600
H4131       H  0.79068296  0.78864054  0.60215439     0.40300
H4132       H  0.82387137  0.82101334  0.59347750     0.35100
C4133       C  0.00279073  0.79349451  0.57637740    -0.26600
C4134       C  0.97677443  0.79776470  0.57711359    -0.14700
C4135       C  0.95880524  0.79225175  0.55818333     0.36000
C4136       C  0.96560739  0.78049298  0.53970518    -0.26000
C4137       C  0.99047904  0.77456819  0.53932366    -0.15300
C4138       C  0.01015585  0.78242623  0.55768285     0.37100
N4139       N  0.03823295  0.78055418  0.55781201    -0.89500
H4140       H  0.01728173  0.79824995  0.59055271     0.18200
H4141       H  0.95098740  0.77552982  0.52556711     0.18200
N4142       N  0.93359976  0.79865649  0.55754546    -0.88600
H4143       H  0.03524873  0.76353205  0.56889572     0.35500
H4144       H  0.04269474  0.77407251  0.54282503     0.40600
H4145       H  0.91316340  0.77814541  0.55356953     0.40300
H4146       H  0.93813969  0.81469642  0.54527757     0.35100
C4147       C  0.81494088  0.96135406  0.78536774    -0.26600
C4148       C  0.83669254  0.95583865  0.79590399    -0.14700
C4149       C  0.86861802  0.97412956  0.79101894     0.36000
C4150       C  0.87800788  0.99663506  0.77478897    -0.26000
C4151       C  0.85609784  0.00125889  0.76332635    -0.15300
C4152       C  0.82409500  0.98350968  0.76909208     0.37100
N4153       N  0.80362982  0.49097243  0.76060079    -0.89500
H4154       H  0.79046275  0.94788520  0.78961811     0.18200
H4155       H  0.90251012  0.00986640  0.77060633     0.18200
N4156       N  0.89130934  0.96972853  0.80253978    -0.88600
H4157       H  0.79772494  0.97999277  0.74295147     0.35500
H4158       H  0.81156046  0.51474652  0.76135683     0.40600
H4159       H  0.89077898  0.97560151  0.81865588     0.40300
H4160       H  0.91380313  0.98488698  0.79689902     0.35100
C4161       C  0.79743737  0.55826902  0.54398011    -0.26600
C4162       C  0.77867813  0.52639813  0.54014925    -0.14700
C4163       C  0.77556789  0.50526122  0.55631680     0.36000
C4164       C  0.79146378  0.51641562  0.57599287    -0.26000
C4165       C  0.81116876  0.54834919  0.57977277    -0.15300
C4166       C  0.81365000  0.56943258  0.56356218     0.37100
N4167       N  0.83289953  0.60218483  0.56670972    -0.89500
H4168       H  0.79996765  0.57458564  0.53155245     0.18200
H4169       H  0.78963115  0.49985787  0.58799829     0.18200
N4170       N  0.75763122  0.47247290  0.55223691    -0.88600
H4171       H  0.81889159  0.61230334  0.56503463     0.35500
H4172       H  0.84968694  0.61082678  0.55450613     0.40600
H4173       H  0.73376236  0.96534345  0.55049112     0.40300
H4174       H  0.75798298  0.95870781  0.56539142     0.35100
C4175       C  0.94484302  0.67273328  0.56232690    -0.26600
C4176       C  0.96721289  0.66702258  0.57205074    -0.14700
C4177       C  0.99821663  0.68293833  0.56414791     0.36000
C4178       C  0.00598014  0.70414249  0.54729503    -0.26000
C4179       C  0.98385079  0.71062482  0.53824963    -0.15300
C4180       C  0.95264132  0.69411816  0.54556980     0.37100
N4181       N  0.92799202  0.69744181  0.53599280    -0.89500
H4182       H  0.92094134  0.66082881  0.56801086     0.18200
H4183       H  0.02965093  0.71578414  0.54115851     0.18200
N4184       N  0.02220271  0.67769193  0.57245245    -0.88600
H4185       H  0.92005282  0.70713034  0.54760688     0.35500
H4186       H  0.93569434  0.71251174  0.52291075     0.40600
H4187       H  0.01434849  0.65392457  0.57184806     0.40300
H4188       H  0.02692797  0.68539505  0.58839916     0.35100
C4189       C  0.51322640  0.91817703  0.79302595    -0.26600
C4190       C  0.53109928  0.90399437  0.79696251    -0.14700
C4191       C  0.53331838  0.88496386  0.78113635     0.36000
C4192       C  0.51898818  0.88185143  0.76109339    -0.26000
C4193       C  0.50202899  0.89701778  0.75663248    -0.15300
C4194       C  0.49896928  0.91527409  0.77290974     0.37100
N4195       N  0.48196093  0.93120831  0.76891012    -0.89500
H4196       H  0.51156534  0.93265707  0.80542283     0.18200
H4197       H  0.01035793  0.85792873  0.75379229     0.18200
N4198       N  0.54949519  0.86833603  0.78567492    -0.88600
H4199       H  0.48178139  0.94335602  0.78263186     0.35500
H4200       H  0.49401172  0.94779926  0.75703844     0.40600
H4201       H  0.57289270  0.88447455  0.78849241     0.40300
H4202       H  0.03421775  0.84344308  0.77905996     0.35100
C4203       C  0.53359883  0.65225259  0.76114874    -0.26600
C4204       C  0.51687389  0.62053538  0.75566922    -0.14700
C4205       C  0.01409511  0.59920663  0.77269504     0.36000
C4206       C  0.53490432  0.60944483  0.78927848    -0.26000
C4207       C  0.55076710  0.64096862  0.79503880    -0.15300
C4208       C  0.55066761  0.66276463  0.78047768     0.37100
N4209       N  0.56748648  0.69558498  0.78464233    -0.89500
H4210       H  0.53281442  0.66911454  0.75056644     0.18200
H4211       H  0.53564408  0.59282544  0.80011025     0.18200
N4212       N  0.99404392  0.56657341  0.76951800    -0.88600
H4213       H  0.58441341  0.70595464  0.77263835     0.35500
H4214       H  0.57946048  0.70085361  0.79926502     0.40600
H4215       H  0.97788303  0.55815837  0.78211592     0.40300
H4216       H  0.00762673  0.55590269  0.77045740     0.35100
C4217       C  0.61804454  0.97034949  0.76203117    -0.26600
C4218       C  0.60383378  0.98758657  0.75599678    -0.14700
C4219       C  0.58957011  0.49768079  0.77344694     0.36000
C4220       C  0.57907098  0.97713304  0.79128825    -0.26000
C4221       C  0.59231838  0.95896652  0.79693726    -0.15300
C4222       C  0.61270368  0.95612915  0.78226271     0.37100
N4223       N  0.62895303  0.93974179  0.78738373    -0.89500
H4224       H  0.63422117  0.96855798  0.75115253     0.18200
H4225       H  0.56370833  0.97949872  0.80261465     0.18200
N4226       N  0.57880964  0.51924738  0.76947242    -0.88600
H4227       H  0.62214478  0.92168600  0.77626114     0.35500
H4228       H  0.62315639  0.92975573  0.80263863     0.40600
H4229       H  0.56843170  0.52230365  0.78323584     0.40300
H4230       H  0.56130805  0.50940677  0.75775686     0.35100
C4231       C  0.63070354  0.61429550  0.77733839    -0.26600
C4232       C  0.64392699  0.63768440  0.76160927    -0.14700
C4233       C  0.64213005  0.66503251  0.76436131     0.36000
C4234       C  0.62567399  0.66737846  0.78197361    -0.26000
C4235       C  0.61158928  0.64345023  0.79701410    -0.15300
C4236       C  0.61462610  0.61695747  0.79502785     0.37100
N4237       N  0.60138385  0.59293787  0.81100063    -0.89500
H4238       H  0.63209086  0.59335941  0.77557929     0.18200
H4239       H  0.62428437  0.68824233  0.78426263     0.18200
N4240       N  0.65650197  0.69011508  0.74923642    -0.88600
H4241       H  0.60605801  0.57514884  0.80729697     0.35500
H4242       H  0.57716148  0.58315745  0.81042335     0.40600
H4243       H  0.68064992  0.69956079  0.75054798     0.40300
H4244       H  0.65192856  0.70786413  0.75330565     0.35100
C4245       C  0.70549189  0.54964855  0.55402064    -0.26600
C4246       C  0.68527410  0.52582012  0.56803650    -0.14700
C4247       C  0.67759463  0.49504792  0.56315521     0.36000
C4248       C  0.69182342  0.48914014  0.54556854    -0.26000
C4249       C  0.71398674  0.51338270  0.53284442    -0.15300
C4250       C  0.71977638  0.54386916  0.53651765     0.37100
N4251       N  0.74035945  0.56962537  0.52316062    -0.89500
H4252       H  0.71143558  0.57341298  0.55710397     0.18200
H4253       H  0.68628253  0.46554247  0.54228156     0.18200
N4254       N  0.65598399  0.46975341  0.57623744    -0.88600
H4255       H  0.72716134  0.57848396  0.51625976     0.35500
H4256       H  0.74915585  0.56273261  0.51033554     0.40600
H4257       H  0.66745133  0.45856927  0.58236639     0.40300
H4258       H  0.63776918  0.45404505  0.56636231     0.35100
C4259       C  0.71911334  0.70106673  0.57406523    -0.26600
C4260       C  0.72701056  0.67769698  0.57616940    -0.14700
C4261       C  0.73920795  0.66988002  0.55803036     0.36000
C4262       C  0.74258070  0.68516346  0.53839063    -0.26000
C4263       C  0.73472245  0.70842779  0.53649239    -0.15300
C4264       C  0.72251700  0.71628156  0.55450542     0.37100
N4265       N  0.71395373  0.73996770  0.55370909    -0.89500
H4266       H  0.70941258  0.70720017  0.58760413     0.18200
H4267       H  0.75257786  0.67979412  0.52464427     0.18200
N4268       N  0.74830830  0.64665232  0.55952795    -0.88600
H4269       H  0.69008923  0.72942849  0.55702801     0.35500
H4270       H  0.71694410  0.74946306  0.53834740     0.40600
H4271       H  0.76739065  0.65511205  0.57000515     0.40300
H4272       H  0.75605004  0.64326060  0.54463282     0.35100
C4273       C  0.50796539  0.84574300  0.89691986    -0.26600
C4274       C  0.52389703  0.82975941  0.90201672    -0.14700
C4275       C  0.55228794  0.83814836  0.89103215     0.36000
C4276       C  0.56374578  0.86186541  0.87565059    -0.26000
C4277       C  0.54779168  0.87775011  0.87083898    -0.15300
C4278       C  0.51961965  0.86947403  0.88150898     0.37100
N4279       N  0.50308113  0.88561132  0.87699184    -0.89500
H4280       H  0.48657650  0.84025643  0.90526915     0.18200
H4281       H  0.58524107  0.86783030  0.86725972     0.18200
N4282       N  0.07345950  0.82649951  0.89782077    -0.88600
H4283       H  0.50105087  0.89548270  0.89135608     0.35500
H4284       H  0.48062621  0.86937545  0.87180347     0.40600
H4285       H  0.06129024  0.80271905  0.89459023     0.40300
H4286       H  0.07904977  0.83021867  0.91420130     0.35100
C4287       C  0.54464513  0.67185539  0.90797282    -0.26600
C4288       C  0.55680320  0.70406104  0.91027930    -0.14700
C4289       C  0.57565534  0.72360761  0.89349048     0.36000
C4290       C  0.58130468  0.71079235  0.87493452    -0.26000
C4291       C  0.56856364  0.67867157  0.87252909    -0.15300
C4292       C  0.55020768  0.65896172  0.88944289     0.37100
N4293       N  0.53631372  0.62581042  0.88829078    -0.89500
H4294       H  0.52985325  0.65625723  0.92043991     0.18200
H4295       H  0.59605623  0.72613875  0.86233730     0.18200
N4296       N  0.58938733  0.75656135  0.89518601    -0.88600
H4297       H  0.54616078  0.61906054  0.90052610     0.35500
H4298       H  0.54130731  0.61863432  0.87375581     0.40600
H4299       H  0.58175996  0.76419072  0.88209067     0.40300
H4300       H  0.61359782  0.76645089  0.89399298     0.35100
C4301       C  0.81561861  0.85566458  0.90024667    -0.26600
C4302       C  0.78444906  0.83973326  0.90719465    -0.14700
C4303       C  0.76121296  0.83990448  0.89419874     0.36000
C4304       C  0.76931208  0.85516706  0.87437924    -0.26000
C4305       C  0.80049113  0.87173774  0.86765380    -0.15300
C4306       C  0.82404941  0.87192030  0.88074436     0.37100
N4307       N  0.85653773  0.88810733  0.87489479    -0.89500
H4308       H  0.83362012  0.85521557  0.90992544     0.18200
H4309       H  0.75120643  0.85504487  0.86449107     0.18200
N4310       N  0.72950879  0.82551705  0.90138819    -0.88600
H4311       H  0.86877698  0.90461462  0.88684500     0.35500
H4312       H  0.86051315  0.90030304  0.86054281     0.40600
H4313       H  0.71542746  0.80953347  0.88967276     0.40300
H4314       H  0.72318171  0.84262375  0.90240200     0.35100
C4315       C  0.64865225  0.70248725  0.87477688    -0.26600
C4316       C  0.62463071  0.67181145  0.87266795    -0.14700
C4317       C  0.62336918  0.64881721  0.88636750     0.36000
C4318       C  0.64596396  0.65727405  0.90254411    -0.26000
C4319       C  0.67008534  0.68821393  0.90501894    -0.15300
C4320       C  0.67137022  0.71110696  0.89086548     0.37100
N4321       N  0.69523723  0.74305942  0.89297651    -0.89500
H4322       H  0.64971522  0.71973994  0.86366749     0.18200
H4323       H  0.64457851  0.63957100  0.91332854     0.18200
N4324       N  0.59911957  0.61706965  0.88381115    -0.88600
H4325       H  0.69053997  0.75165394  0.90701731     0.35500
H4326       H  0.69396804  0.75611874  0.88028170     0.40600
H4327       H  0.60240619  0.60918909  0.86895369     0.40300
H4328       H  0.60108898  0.60313189  0.89555061     0.35100
C4329       C  0.65688138  0.95281116  0.89233322    -0.26600
C4330       C  0.64661311  0.96176927  0.91074013    -0.14700
C4331       C  0.61673860  0.95918530  0.91021950     0.36000
C4332       C  0.59817225  0.94774267  0.89151612    -0.26000
C4333       C  0.60849376  0.93860126  0.87333017    -0.15300
C4334       C  0.63837544  0.94130784  0.87377417     0.37100
N4335       N  0.65042206  0.93174443  0.85606826    -0.89500
H4336       H  0.67950078  0.95428994  0.89238950     0.18200
H4337       H  0.57541827  0.94594973  0.89107364     0.18200
N4338       N  0.60500621  0.96762560  0.92868577    -0.88600
H4339       H  0.66937947  0.95161484  0.84965354     0.35500
H4340       H  0.63407625  0.92122927  0.84375411     0.40600
H4341       H  0.60128363  0.95171112  0.94087785     0.40300
H4342       H  0.58324001  0.96535374  0.92533200     0.35100
C4343       C  0.80287420  0.94412162  0.90635076    -0.26600
C4344       C  0.77071364  0.93259630  0.90936747    -0.14700
C4345       C  0.75008685  0.91780187  0.89195584     0.36000
C4346       C  0.76196912  0.91511766  0.87205287    -0.26000
C4347       C  0.79396686  0.92633486  0.86938523    -0.15300
C4348       C  0.81455452  0.94119751  0.88653373     0.37100
N4349       N  0.84739213  0.95340797  0.88380374    -0.89500
H4350       H  0.81931470  0.95616165  0.91926291     0.18200
H4351       H  0.74605444  0.90324892  0.85884102     0.18200
N4352       N  0.71713393  0.90516008  0.89440470    -0.88600
H4353       H  0.85533986  0.44263417  0.89612648     0.35500
H4354       H  0.85864140  0.97723364  0.88688695     0.40600
H4355       H  0.70609272  0.88150344  0.89074785     0.40300
H4356       H  0.70980070  0.91577925  0.88315411     0.35100
C4357       C  0.93491881  0.83357799  0.10712170    -0.26600
C4358       C  0.92496675  0.81577041  0.12594412    -0.14700
C4359       C  0.91959079  0.78515185  0.12534364     0.36000
C4360       C  0.92504884  0.77328836  0.10632929    -0.26000
C4361       C  0.93599680  0.79127090  0.08746776    -0.15300
C4362       C  0.94034224  0.82176354  0.08789397     0.37100
N4363       N  0.95068463  0.84093623  0.06900929    -0.89500
H4364       H  0.93849196  0.85688371  0.10745551     0.18200
H4365       H  0.92140274  0.74995216  0.10657582     0.18200
N4366       N  0.90849997  0.76553041  0.14387884    -0.88600
H4367       H  0.95371469  0.86289036  0.07228513     0.35500
H4368       H  0.93284988  0.83076759  0.05754707     0.40600
H4369       H  0.88734791  0.76362076  0.14867616     0.40300
H4370       H  0.92466679  0.77603765  0.15634211     0.35100
C4371       C  0.84490708  0.79195500  0.12555980    -0.26600
C4372       C  0.86889077  0.82248809  0.12844039    -0.14700
C4373       C  0.87147603  0.84590110  0.11456667     0.36000
C4374       C  0.85053163  0.83801238  0.09731199    -0.26000
C4375       C  0.82682637  0.80717379  0.09380918    -0.15300
C4376       C  0.82392877  0.78384102  0.10829928     0.37100
N4377       N  0.80047650  0.75189733  0.10520657    -0.89500
H4378       H  0.84295009  0.77430297  0.13664428     0.18200
H4379       H  0.85307774  0.85603407  0.08637481     0.18200
N4380       N  0.89573369  0.87747092  0.11787110    -0.88600
H4381       H  0.80042369  0.73835362  0.11805760     0.35500
H4382       H  0.80675419  0.74387598  0.09157564     0.40600
H4383       H  0.89135220  0.88500568  0.13251466     0.40300
H4384       H  0.89487554  0.89181600  0.10595643     0.35100
C4385       C  0.81525384  0.00554823  0.43471964    -0.26600
C4386       C  0.80456523  0.97458398  0.42869066    -0.14700
C4387       C  0.78181518  0.95058718  0.44190426     0.36000
C4388       C  0.77023311  0.95803311  0.46012470    -0.26000
C4389       C  0.78038075  0.98885831  0.46573592    -0.15300
C4390       C  0.80346055  0.01280292  0.45314221     0.37100
N4391       N  0.81383581  0.04448906  0.45844188    -0.89500
H4392       H  0.83240243  0.02423684  0.42488164     0.18200
H4393       H  0.75213876  0.93948628  0.46957202     0.18200
N4394       N  0.76866478  0.91836692  0.43678612    -0.88600
H4395       H  0.80924170  0.05464417  0.44527630     0.35500
H4396       H  0.83800081  0.05581738  0.46069438     0.40600
H4397       H  0.78622204  0.91254862  0.43749676     0.40300
H4398       H  0.75913754  0.91427826  0.42128808     0.35100
C4399       C  0.80569641  0.81574314  0.43316250    -0.26600
C4400       C  0.78815837  0.83023526  0.42840706    -0.14700
C4401       C  0.76494659  0.82724511  0.44296242     0.36000
C4402       C  0.75895090  0.80900046  0.46138734    -0.26000
C4403       C  0.77521719  0.79313307  0.46527396    -0.15300
C4404       C  0.79944477  0.79721471  0.45145064     0.37100
N4405       N  0.81748787  0.78248457  0.45601357    -0.89500
H4406       H  0.82442027  0.81880524  0.42255540     0.18200
H4407       H  0.74089234  0.80651136  0.47243884     0.18200
N4408       N  0.74688157  0.84193192  0.43891236    -0.88600
H4409       H  0.83481794  0.78829527  0.44438225     0.35500
H4410       H  0.80263878  0.75853565  0.45491200     0.40600
H4411       H  0.74957197  0.85622211  0.45207115     0.40300
H4412       H  0.72339100  0.82470156  0.43809875     0.35100
C4413       C  0.87557562  0.88290019  0.22698958    -0.26600
C4414       C  0.86210973  0.85922729  0.24259447    -0.14700
C4415       C  0.86159156  0.83091561  0.23873481     0.36000
C4416       C  0.87427177  0.82708449  0.21950682    -0.26000
C4417       C  0.88870612  0.85123574  0.20461727    -0.15300
C4418       C  0.88902876  0.87923239  0.20815502     0.37100
N4419       N  0.90269210  0.90362559  0.19246856    -0.89500
H4420       H  0.87630224  0.90477253  0.22961646     0.18200
H4421       H  0.87312649  0.80517425  0.21613581     0.18200
N4422       N  0.84832195  0.80615517  0.25415417    -0.88600
H4423       H  0.90063432  0.92265101  0.19735057     0.35500
H4424       H  0.92656269  0.91124140  0.19181848     0.40600
H4425       H  0.86351974  0.81296712  0.26732532     0.40300
H4426       H  0.84761825  0.78626869  0.24793558     0.35100
C4427       C  0.55049096  0.82907412  0.43917079    -0.26600
C4428       C  0.52752791  0.82143047  0.42314738    -0.14700
C4429       C  0.49793065  0.79458633  0.42618257     0.36000
C4430       C  0.99018194  0.78496687  0.44876853    -0.26000
C4431       C  0.51576880  0.78368856  0.46029679    -0.15300
C4432       C  0.54517745  0.81063193  0.45745905     0.37100
N4433       N  0.57039147  0.81993019  0.47257468    -0.89500
H4434       H  0.57337818  0.84936783  0.43734816     0.18200
H4435       H  0.96627459  0.77072529  0.45409060     0.18200
N4436       N  0.97155459  0.80324659  0.41829342    -0.88600
H4437       H  0.58871667  0.81949534  0.46448065     0.35500
H4438       H  0.56438714  0.80433438  0.48528283     0.40600
H4439       H  0.97427348  0.82541218  0.41956054     0.40300
H4440       H  0.95005445  0.78799085  0.42531541     0.35100
C4441       C  0.67076361  0.93201210  0.44037129    -0.26600
C4442       C  0.68090971  0.94937823  0.42125168    -0.14700
C4443       C  0.70956440  0.97800593  0.42153048     0.36000
C4444       C  0.72583095  0.98922672  0.44083020    -0.26000
C4445       C  0.71474889  0.97261411  0.46000489    -0.15300
C4446       C  0.68739211  0.94345557  0.45968615     0.37100
N4447       N  0.67630369  0.92559077  0.47901312    -0.89500
H4448       H  0.64908239  0.91006732  0.44063616     0.18200
H4449       H  0.74690209  0.01169138  0.44096424     0.18200
N4450       N  0.72289798  0.99646117  0.40265597    -0.88600
H4451       H  0.67495453  0.90421414  0.47631043     0.35500
H4452       H  0.65374910  0.92148753  0.48200827     0.40600
H4453       H  0.70916745  0.00580798  0.39767637     0.40300
H4454       H  0.72407582  0.98251808  0.39048510     0.35100
C4455       C  0.94526136  0.83905164  0.21963821    -0.26600
C4456       C  0.95185401  0.85843064  0.20176182    -0.14700
C4457       C  0.97756417  0.88906111  0.20285071     0.36000
C4458       C  0.99601128  0.89919307  0.22162665    -0.26000
C4459       C  0.98938353  0.87985135  0.23968129    -0.15300
C4460       C  0.96294964  0.84952592  0.23872221     0.37100
N4461       N  0.95384036  0.82937639  0.25711205    -0.89500
H4462       H  0.92567244  0.81564133  0.21883971     0.18200
H4463       H  0.01597120  0.92244091  0.22193413     0.18200
N4464       N  0.98549763  0.91072527  0.18545705    -0.88600
H4465       H  0.93432467  0.80786531  0.25357453     0.35500
H4466       H  0.94689072  0.83937861  0.26915984     0.40600
H4467       H  0.97007787  0.90126002  0.17252514     0.40300
H4468       H  0.00748609  0.91595608  0.17976378     0.35100
C4469       C  0.97516548  0.62768295  0.11925335    -0.26600
C4470       C  0.94637556  0.61902017  0.12902142    -0.14700
C4471       C  0.93086647  0.63548484  0.12384909     0.36000
C4472       C  0.94347076  0.65877253  0.10796994    -0.26000
C4473       C  0.97142943  0.66623179  0.09720458    -0.15300
C4474       C  0.98783333  0.65096193  0.10343011     0.37100
N4475       N  0.01724305  0.65900772  0.09361943    -0.89500
H4476       H  0.98771660  0.61594602  0.12393165     0.18200
H4477       H  0.93073289  0.67037863  0.10346571     0.18200
N4478       N  0.90300646  0.62930739  0.13518937    -0.88600
H4479       H  0.02612813  0.64549526  0.09986846     0.35500
H4480       H  0.03305546  0.68197567  0.09783915     0.40600
H4481       H  0.88529717  0.60731427  0.13063889     0.40300
H4482       H  0.89562658  0.64473038  0.13038586     0.35100
C4483       C  0.85660454  0.54416706  0.12629955    -0.26600
C4484       C  0.88856329  0.55416704  0.12454524    -0.14700
C4485       C  0.90016303  0.55056653  0.10465075     0.36000
C4486       C  0.88011812  0.53879842  0.08668655    -0.26000
C4487       C  0.84838627  0.53012783  0.08825616    -0.15300
C4488       C  0.83655749  0.53222539  0.10849613     0.37100
N4489       N  0.80403691  0.52180722  0.11117557    -0.89500
H4490       H  0.84711602  0.54581967  0.14166835     0.18200
H4491       H  0.88962462  0.53707694  0.07135198     0.18200
N4492       N  0.93200357  0.55801617  0.10273735    -0.88600
H4493       H  0.80238926  0.04290589  0.11690017     0.35500
H4494       H  0.79561866  0.00681311  0.12211916     0.40600
H4495       H  0.93221188  0.53797972  0.09791371     0.40300
H4496       H  0.94235195  0.57443422  0.09050534     0.35100
C4497       C  0.89411296  0.49001097  0.22281226    -0.26600
C4498       C  0.88630995  0.50211997  0.24084368    -0.14700
C4499       C  0.88562304  0.53009902  0.23844194     0.36000
C4500       C  0.89369135  0.54547374  0.21857597    -0.26000
C4501       C  0.90237056  0.53381704  0.20094959    -0.15300
C4502       C  0.90159744  0.50523792  0.20291955     0.37100
N4503       N  0.90832420  0.49117120  0.18508248    -0.89500
H4504       H  0.89388213  0.46818627  0.22399546     0.18200
H4505       H  0.89364150  0.56710106  0.21684365     0.18200
N4506       N  0.86947758  0.04065408  0.25426613    -0.88600
H4507       H  0.93024734  0.50685578  0.17888947     0.35500
H4508       H  0.89172247  0.48630781  0.17306302     0.40600
H4509       H  0.84586328  0.02419880  0.25607663     0.40300
H4510       H  0.87017401  0.06115905  0.24961727     0.35100
C4511       C  0.72908118  0.64150750  0.12126523    -0.26600
C4512       C  0.69844217  0.62869166  0.12887962    -0.14700
C4513       C  0.67620089  0.63229487  0.11698769     0.36000
C4514       C  0.68455890  0.64646064  0.09675080    -0.26000
C4515       C  0.71493304  0.65812076  0.08875505    -0.15300
C4516       C  0.73741756  0.65582346  0.10119594     0.37100
N4517       N  0.76858567  0.66765658  0.09339270    -0.89500
H4518       H  0.74659994  0.64018809  0.13091491     0.18200
H4519       H  0.66772726  0.64967429  0.08760900     0.18200
N4520       N  0.64588881  0.62296469  0.12585829    -0.88600
H4521       H  0.77311349  0.64928294  0.09268084     0.35500
H4522       H  0.78395073  0.68378288  0.10458334     0.40600
H4523       H  0.63396270  0.59902706  0.12805423     0.40300
H4524       H  0.63260502  0.62777156  0.11509718     0.35100
C4525       C  0.69205490  0.55010925  0.09467218    -0.26600
C4526       C  0.72404046  0.56049914  0.09181060    -0.14700
C4527       C  0.74471376  0.57584462  0.10909051     0.36000
C4528       C  0.73322151  0.58084075  0.12848548    -0.26000
C4529       C  0.70157906  0.57165139  0.13081642    -0.15300
C4530       C  0.68062630  0.55532775  0.11398921     0.37100
N4531       N  0.64775124  0.54349490  0.11674694    -0.89500
H4532       H  0.67565169  0.53741363  0.08188420     0.18200
H4533       H  0.74935923  0.59330189  0.14146793     0.18200
N4534       N  0.77745257  0.58704293  0.10696346    -0.88600
H4535       H  0.63537365  0.53083519  0.10317196     0.35500
H4536       H  0.64424885  0.56240050  0.11772478     0.40600
H4537       H  0.78407329  0.57713423  0.11919748     0.40300
H4538       H  0.78927293  0.61101834  0.10947403     0.35100
C4539       C  0.68569400  0.55334672  0.21831682    -0.26600
C4540       C  0.66284848  0.55503089  0.20596516    -0.14700
C4541       C  0.63097554  0.53523909  0.21081213     0.36000
C4542       C  0.62287695  0.51487470  0.22821511    -0.26000
C4543       C  0.64564474  0.51333168  0.24089527    -0.15300
C4544       C  0.67750129  0.53262937  0.23567101     0.37100
N4545       N  0.70137488  0.53087957  0.24772892    -0.89500
H4546       H  0.71006207  0.56804189  0.21416383     0.18200
H4547       H  0.59796534  0.00163373  0.23408945     0.18200
N4548       N  0.60616814  0.53436053  0.19816954    -0.88600
H4549       H  0.72351187  0.54679466  0.24188912     0.35500
H4550       H  0.69532531  0.00324223  0.24454516     0.40600
H4551       H  0.61446813  0.54913471  0.18493993     0.40300
H4552       H  0.59426546  0.54218206  0.20794206     0.35100
C4553       C  0.54528697  0.73278108  0.45633971    -0.26600
C4554       C  0.51385604  0.72214134  0.46085151    -0.14700
C4555       C  0.49058519  0.69655963  0.44938308     0.36000
C4556       C  0.49934398  0.68230598  0.43337082    -0.26000
C4557       C  0.53094780  0.69277010  0.42876076    -0.15300
C4558       C  0.55412972  0.71853799  0.44057837     0.37100
N4559       N  0.58684342  0.73136352  0.43678550    -0.89500
H4560       H  0.56319371  0.75205420  0.46548018     0.18200
H4561       H  0.48131297  0.66299072  0.42436271     0.18200
N4562       N  0.96501758  0.71027882  0.44400104    -0.88600
H4563       H  0.59172319  0.73852636  0.42074145     0.35500
H4564       H  0.59286667  0.71440006  0.43985487     0.40600
H4565       H  0.95131400  0.69740058  0.45702127     0.40300
H4566       H  0.95261032  0.69910243  0.43004973     0.35100
C4567       C  0.70634271  0.71874297  0.42467404    -0.26600
C4568       C  0.68473704  0.72921293  0.42277508    -0.14700
C4569       C  0.67974302  0.74376219  0.44076711     0.36000
C4570       C  0.69493316  0.74579891  0.46038949    -0.26000
C4571       C  0.71629908  0.73520558  0.46214083    -0.15300
C4572       C  0.72218476  0.72168861  0.44411180     0.37100
N4573       N  0.74440749  0.71117423  0.44562938    -0.89500
H4574       H  0.71032490  0.70739490  0.41112459     0.18200
H4575       H  0.69111688  0.75688237  0.47418130     0.18200
N4576       N  0.65968744  0.75683875  0.43901217    -0.88600
H4577       H  0.74642796  0.70213559  0.43088008     0.35500
H4578       H  0.73572019  0.69293895  0.45666549     0.40600
H4579       H  0.66978227  0.77491542  0.42786898     0.40300
H4580       H  0.65864479  0.76674770  0.45364051     0.35100
C4581       C  0.99185692  0.58413569  0.23057172    -0.26600
C4582       C  0.98966731  0.60504348  0.24473018    -0.14700
C4583       C  0.97259138  0.61957801  0.23801504     0.36000
C4584       C  0.95876259  0.61318058  0.21755230    -0.26000
C4585       C  0.96093719  0.59214675  0.20363020    -0.15300
C4586       C  0.97760967  0.57754078  0.21024472     0.37100
N4587       N  0.98042221  0.55619350  0.19622751    -0.89500
H4588       H  0.00508448  0.57306549  0.23517528     0.18200
H4589       H  0.94555775  0.62415473  0.21265622     0.18200
N4590       N  0.47008813  0.64251857  0.25127964    -0.88600
H4591       H  0.00414404  0.56474489  0.19328393     0.35500
H4592       H  0.97192198  0.53519390  0.20441952     0.40600
H4593       H  0.49212207  0.66112212  0.25509983     0.40300
H4594       H  0.45872643  0.63089639  0.26534832     0.35100
C4595       C  0.67990783  0.62477365  0.22281570    -0.26600
C4596       C  0.66154788  0.61522185  0.20417402    -0.14700
C4597       C  0.63609697  0.62039192  0.20248565     0.36000
C4598       C  0.62940029  0.63498372  0.21939720    -0.26000
C4599       C  0.64776272  0.64473769  0.23817952    -0.15300
C4600       C  0.67318278  0.63910696  0.23994316     0.37100
N4601       N  0.69160246  0.64704882  0.25930088    -0.89500
H4602       H  0.69968543  0.62109620  0.22396795     0.18200
H4603       H  0.60949109  0.63839219  0.21787677     0.18200
N4604       N  0.61674196  0.61045183  0.18365999    -0.88600
H4605       H  0.70981352  0.64224664  0.25764200     0.35500
H4606       H  0.67725470  0.63256967  0.27154300     0.40600
H4607       H  0.61710938  0.62982231  0.17687709     0.40300
H4608       H  0.59386770  0.59499819  0.18846556     0.35100
loop_ 
_geom_bond_atom_site_label_1 
_geom_bond_atom_site_label_2 
_geom_bond_distance 
_geom_bond_site_symmetry_2 
_ccdc_geom_bond_type 
O1           Mg3   2.155       .  S
O1           Mg9   2.172       .  S
O1           C36   1.234       .  S
C2           O15   1.234       .  S
C2           O39   1.269       .  A
C2           H41   1.081       .  S
Mg3          O32   2.164       .  S
Mg3          O47   2.281   1_455  S
Mg3          O43   2.259       .  S
Mg3          O14   2.304       .  S
O4          Mg46   2.161       .  S
O4          Mg29   2.147       .  S
O4           C25   1.233       .  S
O5           C36   1.269       .  A
O5          Mg29   2.304       .  S
C6            O8   1.268       .  A
C6           O20   1.276       .  A
C6         C1112   1.489       .  S
O7           C35   1.267       .  A
O7           Mg9   2.293       .  S
O8          Mg40   2.246       .  S
Mg9          O15   2.158       .  S
Mg9          O11   2.302       .  S
Mg9        O2327   2.272   1_455  S
C10          O48   1.271       .  A
C10          O16   1.267       .  A
C10         C562   1.452       .  S
O11          C18   1.274       .  A
H12          C25   1.081       .  S
C13          O27   1.236       .  S
C13          O28   1.271       .  A
C13          H38   1.081       .  S
O14          C37   1.269       .  A
O15         Mg29   2.153       .  S
O16         Mg46   2.271       .  S
C17          O30   1.267       .  A
C17          O22   1.275       .  A
C17        C1143   1.488       .  S
C18          O45   1.272       .  A
C18        C3430   1.490   1_455  S
Mg19         O26   2.142       .  S
Mg19         O27   2.164       .  S
Mg19         O20   2.307       .  S
Mg19         O21   2.299       .  S
Mg19         O48   2.259       .  S
O21          C25   1.268       .  A
O22         Mg29   2.313       .  S
O23          C42   1.273       .  A
O23       Mg2313   2.274       .  S
O24          C44   1.270       .  A
O24         Mg40   2.289       .  S
O26         Mg40   2.139       .  S
O26          C37   1.233       .  S
O27         Mg46   2.154       .  S
O28         Mg40   2.309       .  S
Mg29         O45   2.250       .  S
O30         Mg46   2.238       .  S
H31          C36   1.081       .  S
O32         Mg40   2.146       .  S
O32          C35   1.233       .  S
H33          C35   1.081       .  S
H34          C37   1.081       .  S
O39         Mg46   2.298       .  S
C42        O2351   1.268       .  A
C42         C594   1.459       .  S
O43          C44   1.270       .  A
C44        C1101   1.491       .  S
O47        C2346   1.269       .  A
C49        C1140   1.483       .  S
C49          C50   1.420       .  A
C49          C54   1.399       .  A
C50        C1084   1.482       .  S
C50          C51   1.407       .  A
C51          H56   1.084       .  S
C51          C52   1.399       .  A
C52        C1073   1.484       .  S
C52          C53   1.411       .  A
C53        C1056   1.473       .  S
C53          C54   1.395       .  A
C54          H55   1.085       .  S
C57        C1129   1.480       .  S
C57          C58   1.410       .  A
C57          C62   1.401       .  A
C58        C1045   1.488       .  S
C58          C59   1.400       .  A
C59          H64   1.084       .  S
C59          C60   1.410       .  A
C60        C1028   1.490       .  S
C60          C61   1.424       .  A
C61        C1014   1.493       .  S
C61          C62   1.406       .  A
C62          H63   1.084       .  S
O65         Mg67   2.145       .  S
O65         Mg73   2.164       .  S
O65         C100   1.236       .  S
C66          O79   1.233       .  S
C66         O103   1.267       .  A
C66         H105   1.081       .  S
Mg67         O96   2.177       .  S
Mg67        O107   2.268       .  S
Mg67         O78   2.307       .  S
Mg67       O1263   2.338       .  S
O68        Mg110   2.169       .  S
O68         Mg93   2.147       .  S
O68          C89   1.235       .  S
O69         C100   1.270       .  A
O69         Mg93   2.299       .  S
C70          O72   1.278       .  A
C70          O84   1.271       .  A
C70        C3307   1.505   1_455  S
O71          C99   1.270       .  A
O71         Mg73   2.302       .  S
O72        Mg104   2.323       .  S
Mg73         O79   2.149       .  S
Mg73         O75   2.267       .  S
Mg73       O1239   2.282       .  S
C74         O112   1.270       .  A
C74        O2384   1.276       .  A
C74         C596   1.462       .  S
O75          C82   1.268       .  A
H76          C89   1.081       .  S
C77          O91   1.235       .  S
C77          O92   1.271       .  A
C77         H102   1.081   1_455  S
O78         C101   1.269       .  A
O79         Mg93   2.164       .  S
O80        C2378   1.275       .  A
O80        Mg110   2.293   1_655  S
C81          O94   1.278       .  A
C81          O86   1.276       .  A
C81         C972   1.500       .  S
C82         O109   1.273       .  A
C82         C986   1.486       .  S
Mg83         O90   2.159       .  S
Mg83         O91   2.172       .  S
Mg83         O84   2.280       .  S
Mg83         O85   2.295       .  S
Mg83       O2416   2.273   1_455  S
O85          C89   1.269       .  A
O86         Mg93   2.299       .  S
O87         C106   1.270       .  A
O87       Mg1225   2.285   1_545  S
O88         C108   1.279       .  A
O88        Mg104   2.313       .  S
O90        Mg104   2.159       .  S
O90         C101   1.234       .  S
O91        Mg110   2.168       .  S
O92        Mg104   2.307       .  S
Mg93        O109   2.274       .  S
O94        Mg110   2.320       .  S
H95         C100   1.081       .  S
O96        Mg104   2.176       .  S
O96          C99   1.235       .  S
H97          C99   1.081       .  S
H98         C101   1.081       .  S
O103       Mg110   2.293       .  S
C106        O111   1.278       .  A
C106        C569   1.474       .  S
O107        C108   1.274       .  A
C108       C2239   1.488       .  S
O111      Mg1219   2.322   1_545  S
O112      Mg2387   2.274       .  S
O113       Mg115   2.137       .  S
O113       Mg121   2.179       .  S
O113        C148   1.236       .  S
C114        O127   1.236       .  S
C114        O151   1.273       .  A
C114        H153   1.081       .  S
Mg115       O144   2.154       .  S
Mg115       O159   2.311       .  S
Mg115       O155   2.276       .  S
Mg115       O126   2.309       .  S
O116       Mg158   2.143       .  S
O116       Mg141   2.157       .  S
O116        C137   1.233       .  S
O117        C148   1.270       .  A
O117       Mg141   2.296       .  S
C118        O120   1.269       .  A
C118        O132   1.273       .  A
C118       C2194   1.491       .  S
O119        C147   1.265       .  A
O119       Mg121   2.289       .  S
O120       Mg152   2.257       .  S
Mg121       O127   2.168       .  S
Mg121       O135   2.295       .  S
Mg121       O123   2.261       .  S
C122        O160   1.268       .  A
C122       O1280   1.279       .  A
C122        C570   1.459       .  S
O123        C130   1.270       .  A
H124        C137   1.081       .  S
C125        O139   1.237       .  S
C125        O140   1.271       .  A
C125        H150   1.081       .  S
O126        C149   1.271       .  A
O127       Mg141   2.161       .  S
O128       C1274   1.278       .  A
O128       Mg158   2.322       .  S
C129        O142   1.276       .  A
C129        O134   1.271       .  A
C129        C930   1.494       .  S
C130        O157   1.270       .  A
C130        C944   1.480       .  S
Mg131       O138   2.152       .  S
Mg131       O139   2.177       .  S
Mg131       O132   2.299       .  S
Mg131       O133   2.302       .  S
Mg131      O1312   2.265       .  S
O133        C137   1.268       .  A
O134       Mg141   2.291       .  S
O135        C154   1.273       .  A
O136        C156   1.271       .  A
O136       Mg152   2.265       .  S
O138       Mg152   2.151       .  S
O138        C149   1.235       .  S
O139       Mg158   2.159       .  S
O140       Mg152   2.301       .  S
Mg141       O157   2.266       .  S
O142       Mg158   2.311       .  S
H143        C148   1.081       .  S
O144       Mg152   2.142       .  S
O144        C147   1.231       .  S
H145        C147   1.081       .  S
H146        C149   1.081       .  S
O151       Mg158   2.318       .  S
C154        O159   1.276       .  A
C154        C558   1.472       .  S
O155        C156   1.272       .  A
C156        C958   1.486       .  S
O160      Mg1283   2.246   1_545  S
C161       C1000   1.490       .  S
C161        C162   1.414       .  A
C161        C166   1.412       .  A
C162        C961   1.478       .  S
C162        C163   1.395       .  A
C163        H168   1.085       .  S
C163        C164   1.393       .  A
C164        C916   1.472       .  S
C164        C165   1.411       .  A
C165        C902   1.490       .  S
C165        C166   1.412       .  A
C166        H167   1.084       .  S
O169       Mg171   2.152   1_554  S
O169      Mg1329   2.152   1_545  S
O169        C204   1.237       .  S
C170        O183   1.234       .  S
C170        O207   1.270       .  A
C170        H209   1.081       .  S
Mg171      O1352   2.173   1_545  S
Mg171       O182   2.301       .  S
Mg171      O1367   2.312   1_545  S
Mg171      O1363   2.296   1_545  S
O172       Mg197   2.162       .  S
O172      Mg1366   2.168   1_545  S
O172        C193   1.237       .  S
O173        C204   1.273       .  A
O173       Mg197   2.314       .  S
C174        O176   1.270       .  A
C174        O188   1.269       .  A
C174        C888   1.483       .  S
O175        C203   1.270   1_554  A
O175       Mg177   2.302       .  S
O176       Mg208   2.271       .  S
Mg177       O183   2.166       .  S
Mg177      O1321   2.157       .  S
Mg177       O191   2.279       .  S
Mg177      O1331   2.288       .  S
C178        O216   1.270   1_545  A
C178        O184   1.277   1_556  A
C178       C1666   1.474       .  S
O179        C186   1.272       .  A
O179      Mg1329   2.285   1_545  S
H180        C193   1.081       .  S
C181        O195   1.237       .  S
C181        O196   1.273       .  A
C181        H206   1.081   1_556  S
O182        C205   1.268       .  A
O183      Mg1349   2.146       .  S
O184      Mg1366   2.325   1_545  S
C185        O198   1.273       .  A
C185        O190   1.275       .  A
C185       C1031   1.487       .  S
C186        O213   1.271       .  A
C186       C1070   1.490       .  S
Mg187       O194   2.165       .  S
Mg187      O1347   2.143       .  S
Mg187       O189   2.306   1_565  S
Mg187       O216   2.289       .  S
Mg187      O1340   2.273       .  S
O188      Mg1339   2.273       .  S
O189        C193   1.272   1_556  A
O190       Mg197   2.302       .  S
O191        C210   1.270       .  A
O192        C212   1.275       .  A
O192       Mg208   2.302       .  S
O194      Mg1360   2.147       .  S
O194        C205   1.233   1_565  S
O195       Mg214   2.142   1_556  S
O195      Mg1339   2.146       .  S
O196       Mg208   2.313       .  S
Mg197      O1335   2.147   1_545  S
Mg197       O213   2.278       .  S
O198      Mg1366   2.282   1_545  S
H199        C204   1.081   1_556  S
O200       Mg208   2.155       .  S
O200      Mg1323   2.171       .  S
O200        C203   1.235       .  S
H201        C203   1.081       .  S
H202        C205   1.081       .  S
O207       Mg214   2.310       .  S
Mg208      O1346   2.146       .  S
C210        O215   1.277   1_554  A
C210        C546   1.466       .  S
O211        C212   1.277       .  A
O211      Mg1323   2.306       .  S
C212        C874   1.499       .  S
Mg214      O1324   2.168       .  S
Mg214      O1336   2.314       .  S
Mg214      O1350   2.283       .  S
O215      Mg1323   2.310       .  S
O217       Mg219   2.145   1_556  S
O217       Mg225   2.182       .  S
O217        C252   1.237       .  S
C218        O231   1.236       .  S
C218        O255   1.272       .  A
C218        H257   1.081       .  S
Mg219       O248   2.140       .  S
Mg219       O263   2.283       .  S
Mg219       O259   2.256       .  S
Mg219       O230   2.308       .  S
O220       Mg262   2.145       .  S
O220       Mg245   2.140       .  S
O220        C241   1.231       .  S
O221        C252   1.271       .  A
O221       Mg245   2.301       .  S
C222        O224   1.265       .  A
C222        O236   1.272       .  A
C222       C1059   1.463       .  S
O223        C251   1.264   1_556  A
O223       Mg225   2.287       .  S
O224       Mg256   2.207       .  S
Mg225       O231   2.150       .  S
Mg225       O239   2.265       .  S
Mg225       O227   2.300       .  S
C226        O264   1.273       .  A
C226        O232   1.271   1_554  A
C226        C548   1.460   1_554  S
O227        C234   1.275       .  A
H228        C241   1.081       .  S
C229        O243   1.237       .  S
C229        O244   1.270       .  A
C229        H254   1.081   1_554  S
O230        C253   1.271       .  A
O231       Mg245   2.147       .  S
O232       Mg262   2.295       .  S
C233        O246   1.267       .  A
C233        O238   1.269       .  A
C233        C863   1.485       .  S
C234        O261   1.267       .  A
C234        C846   1.481       .  S
Mg235       O242   2.145       .  S
Mg235       O243   2.175       .  S
Mg235       O236   2.281       .  S
Mg235       O237   2.286       .  S
Mg235       O264   2.268       .  S
O237        C241   1.264   1_554  A
O238       Mg245   2.284       .  S
O239        C258   1.273       .  A
O240        C260   1.268       .  A
O240       Mg256   2.280       .  S
O242       Mg256   2.148       .  S
O242        C253   1.236       .  S
O243       Mg262   2.128   1_554  S
O244       Mg256   2.292       .  S
Mg245       O261   2.237       .  S
O246       Mg262   2.235       .  S
H247        C252   1.081       .  S
O248       Mg256   2.129       .  S
O248        C251   1.231       .  S
H249        C251   1.081       .  S
H250        C253   1.081       .  S
O255       Mg262   2.313       .  S
C258        O263   1.270   1_556  A
C258        C521   1.455       .  S
O259        C260   1.269       .  A
C260        C919   1.486       .  S
O265       Mg267   2.173   1_556  S
O265      Mg2577   2.177   1_455  S
O265        C300   1.233       .  S
C266        O279   1.234       .  S
C266        O303   1.268       .  A
C266        H305   1.081       .  S
Mg267      O2600   2.177   1_455  S
Mg267       O278   2.290       .  S
Mg267      O2615   2.276   1_455  S
Mg267      O2611   2.261   1_455  S
O268       Mg293   2.165       .  S
O268      Mg2614   2.175   1_455  S
O268        C289   1.235       .  S
O269        C300   1.269       .  A
O269       Mg293   2.303       .  S
C270        O272   1.277       .  A
C270        O284   1.278       .  A
C270        C905   1.502       .  S
O271        C299   1.270   1_556  A
O271       Mg273   2.299       .  S
O272       Mg304   2.291       .  S
Mg273       O279   2.152       .  S
Mg273      O2569   2.176       .  S
Mg273       O287   2.270       .  S
Mg273      O2579   2.340       .  S
C274        O312   1.273   1_556  A
C274        O280   1.269       .  A
C274        C522   1.463       .  S
O275        C282   1.280       .  A
O275      Mg2577   2.333   1_455  S
H276        C289   1.081       .  S
C277        O291   1.234       .  S
C277        O292   1.269       .  A
C277        H302   1.081   1_554  S
O278        C301   1.267       .  A
O279      Mg2597   2.159       .  S
O280      Mg2614   2.281       .  S
C281        O294   1.272       .  A
C281        O286   1.276       .  A
C281        C818   1.495       .  S
C282        O309   1.275       .  A
C282        C832   1.499       .  S
Mg283       O290   2.148   1_655  S
Mg283      O2595   2.177       .  S
Mg283       O285   2.299   1_655  S
Mg283       O312   2.274       .  S
Mg283      O2588   2.329       .  S
O284      Mg2587   2.317       .  S
O285        C289   1.270   1_554  A
O286       Mg293   2.317       .  S
O287        C306   1.273   1_556  A
O288        C308   1.279       .  A
O288       Mg304   2.329       .  S
O290      Mg2608   2.159   1_455  S
O290        C301   1.233       .  S
O291       Mg310   2.162   1_554  S
O291      Mg2587   2.172       .  S
O292       Mg304   2.302       .  S
Mg293      O2583   2.163   1_455  S
Mg293       O309   2.286       .  S
O294      Mg2614   2.262   1_455  S
H295        C300   1.081   1_554  S
O296       Mg304   2.165       .  S
O296      Mg2571   2.181       .  S
O296        C299   1.235       .  S
H297        C299   1.081       .  S
H298        C301   1.081       .  S
O303       Mg310   2.297       .  S
Mg304      O2594   2.161       .  S
C306        O311   1.268       .  A
C306       C2814   1.459       .  S
O307        C308   1.273       .  A
O307      Mg2571   2.268       .  S
C308       C1017   1.497       .  S
Mg310      O2572   2.173       .  S
Mg310      O2584   2.279       .  S
Mg310      O2598   2.244       .  S
O311      Mg2571   2.274       .  S
O313       Mg315   2.167       .  S
O313       Mg321   2.160       .  S
O313        C348   1.236       .  S
C314        O327   1.237       .  S
C314        O351   1.272       .  A
C314        H353   1.081       .  S
Mg315       O344   2.142       .  S
Mg315       O359   2.294   1_545  S
Mg315       O355   2.274       .  S
Mg315       O326   2.309       .  S
O316       Mg358   2.138       .  S
O316       Mg341   2.136       .  S
O316        C337   1.233       .  S
O317        C348   1.270       .  A
O317       Mg341   2.302       .  S
C318        O320   1.267       .  A
C318        O332   1.276       .  A
C318        C804   1.484       .  S
O319        C347   1.269       .  A
O319       Mg321   2.306       .  S
O320       Mg352   2.233       .  S
Mg321       O327   2.144       .  S
Mg321       O323   2.344   1_545  S
Mg321      O1487   2.263   1_545  S
C322        O360   1.274       .  A
C322        O328   1.269       .  A
C322        C606   1.462       .  S
O323        C330   1.280   1_565  A
H324        C337   1.081       .  S
C325        O339   1.235       .  S
C325        O340   1.270       .  A
C325        H350   1.081       .  S
O326        C349   1.272       .  A
O327       Mg341   2.141       .  S
O328       Mg358   2.294       .  S
C329        O342   1.266       .  A
C329        O334   1.269       .  A
C329        C776   1.484       .  S
C330        O357   1.266       .  A
C330       C1914   1.496   1_545  S
Mg331       O338   2.156       .  S
Mg331       O339   2.156       .  S
Mg331       O332   2.302       .  S
Mg331       O333   2.297       .  S
Mg331       O360   2.277       .  S
O333        C337   1.267       .  A
O334       Mg341   2.275       .  S
O335        C354   1.273       .  A
O335      Mg1473   2.266       .  S
O336        C356   1.272       .  A
O336       Mg352   2.293       .  S
O338       Mg352   2.149       .  S
O338        C349   1.236       .  S
O339       Mg358   2.149       .  S
O340       Mg352   2.303       .  S
Mg341       O357   2.229       .  S
O342       Mg358   2.244       .  S
H343        C348   1.081   1_565  S
O344       Mg352   2.141       .  S
O344        C347   1.233       .  S
H345        C347   1.081       .  S
H346        C349   1.081       .  S
O351       Mg358   2.313       .  S
C354       O1511   1.272       .  A
C354        C618   1.460       .  S
O355        C356   1.270       .  A
C356        C790   1.495       .  S
O359       C1506   1.271       .  A
C361        C860   1.471       .  S
C361        C362   1.412       .  A
C361        C366   1.391       .  A
C362        C835   1.492       .  S
C362        C363   1.415       .  A
C363        H368   1.083       .  S
C363        C364   1.415       .  A
C364        C751   1.493       .  S
C364        C365   1.411       .  A
C365        C779   1.472       .  S
C365        C366   1.391       .  A
C366        H367   1.086       .  S
C369        C821   1.487       .  S
C369        C370   1.421       .  A
C369        C374   1.404       .  A
C370        C877   1.490       .  S
C370        C371   1.410       .  A
C371        H376   1.084       .  S
C371        C372   1.403       .  A
C372        C765   1.488       .  S
C372        C373   1.410       .  A
C373        C734   1.477       .  S
C373        C374   1.398       .  A
C374        H375   1.084       .  S
O377       Mg379   2.167       .  S
O377       Mg385   2.155       .  S
O377        C412   1.233       .  S
C378        O391   1.236       .  S
C378        O415   1.271       .  A
C378        H417   1.081       .  S
Mg379       O408   2.156       .  S
Mg379       O423   2.290       .  S
Mg379       O419   2.254       .  S
Mg379       O390   2.295       .  S
O380       Mg422   2.153       .  S
O380       Mg405   2.160       .  S
O380        C401   1.235       .  S
O381        C412   1.268       .  A
O381       Mg405   2.302       .  S
C382        O384   1.273       .  A
C382        O396   1.278       .  A
C382        C709   1.492       .  S
O383        C411   1.270       .  A
O383       Mg385   2.310       .  S
O384       Mg416   2.267       .  S
Mg385       O391   2.156       .  S
Mg385       O387   2.338       .  S
Mg385      O2703   2.269       .  S
C386        O424   1.272       .  A
C386        O392   1.271       .  A
C386        C617   1.461       .  S
O387        C394   1.279       .  A
H388        C401   1.081       .  S
C389        O403   1.233       .  S
C389        O404   1.267       .  A
C389        H414   1.081       .  S
O390        C413   1.269       .  A
O391       Mg405   2.164       .  S
O392      Mg1574   2.303       .  S
C393        O406   1.265       .  A
C393        O398   1.274       .  A
C393       C1847   1.486       .  S
C394        O421   1.273       .  A
C394       C3052   1.500       .  S
Mg395       O402   2.144       .  S
Mg395       O403   2.147       .  S
Mg395       O396   2.318       .  S
Mg395       O397   2.307       .  S
Mg395      O1576   2.267   1_545  S
O397        C401   1.270       .  A
O398       Mg405   2.305       .  S
O399        C418   1.274       .  A
O399      Mg2689   2.280   1_455  S
O400        C420   1.273       .  A
O400       Mg416   2.294       .  S
O402       Mg416   2.163       .  S
O402        C413   1.235       .  S
O403       Mg422   2.146       .  S
O404       Mg416   2.294       .  S
Mg405       O421   2.269       .  S
O406       Mg422   2.229       .  S
H407        C412   1.081       .  S
O408       Mg416   2.159       .  S
O408        C411   1.234       .  S
H409        C411   1.081       .  S
H410        C413   1.081       .  S
O415       Mg422   2.303       .  S
C418       O2727   1.268       .  A
C418        C644   1.458       .  S
O419        C420   1.268       .  A
C420        C720   1.488       .  S
Mg422      O1544   2.303   1_545  S
O423       C2722   1.270       .  A
O424      Mg1547   2.268       .  S
O425       Mg427   2.144       .  S
O425       Mg433   2.127       .  S
O425        C460   1.237       .  S
C426        O439   1.235       .  S
C426        O463   1.270       .  A
C426        H465   1.081       .  S
Mg427       O456   2.157       .  S
Mg427       O471   2.329       .  S
Mg427       O467   2.285       .  S
Mg427       O438   2.310       .  S
O428       Mg470   2.165       .  S
O428       Mg453   2.155       .  S
O428        C449   1.235       .  S
O429        C460   1.274       .  A
O429       Mg453   2.322       .  S
C430        O432   1.268       .  A
C430        O444   1.270       .  A
C430       C3041   1.479       .  S
O431        C459   1.273       .  A
O431       Mg433   2.314       .  S
O432       Mg464   2.259       .  S
Mg433       O439   2.161       .  S
Mg433       O447   2.266       .  S
Mg433       O435   2.272       .  S
C434        O472   1.269       .  A
C434       O2744   1.279       .  A
C434        C642   1.473       .  S
O435        C442   1.265       .  A
H436        C449   1.081       .  S
C437        O451   1.236       .  S
C437        O452   1.271       .  A
C437        H462   1.081       .  S
O438        C461   1.270       .  A
O439       Mg453   2.141       .  S
O440       C2738   1.280       .  A
O440       Mg470   2.335       .  S
C441        O454   1.277       .  A
C441        O446   1.272       .  A
C441        C678   1.494       .  S
C442        O469   1.269       .  A
C442        C664   1.492       .  S
Mg443       O450   2.170       .  S
Mg443       O451   2.145       .  S
Mg443       O444   2.276       .  S
Mg443       O445   2.306       .  S
Mg443      O2776   2.277       .  S
O445        C449   1.271       .  A
O446       Mg453   2.281       .  S
O447        C466   1.265       .  A
O448        C468   1.273       .  A
O448       Mg464   2.289       .  S
O450       Mg464   2.158       .  S
O450        C461   1.234       .  S
O451       Mg470   2.151       .  S
O452       Mg464   2.306       .  S
Mg453       O469   2.286       .  S
O454       Mg470   2.308       .  S
H455        C460   1.081       .  S
O456       Mg464   2.153       .  S
O456        C459   1.237       .  S
H457        C459   1.081       .  S
H458        C461   1.081       .  S
O463       Mg470   2.309       .  S
C466        O471   1.277       .  A
C466        C610   1.469       .  S
O467        C468   1.273       .  A
C468        C650   1.494       .  S
O472      Mg2747   2.282   1_455  S
C473        C849   1.478       .  S
C473        C474   1.407       .  A
C473        C478   1.399       .  A
C474        C891   1.474       .  S
C474        C475   1.395       .  A
C475        H480   1.085       .  S
C475        C476   1.401       .  A
C476        C692   1.478       .  S
C476        C477   1.418       .  A
C477        C653   1.485       .  S
C477        C478   1.405       .  A
C478        H479   1.084       .  S
C481       C1098   1.479       .  S
C481        C482   1.417       .  A
C481        C486   1.400       .  A
C482        C975   1.491       .  S
C482        C483   1.407       .  A
C483        H488   1.084       .  S
C483       C2788   1.410   1_455  A
C484        C681   1.491       .  S
C484        C485   1.416       .  A
C484       C2787   1.410       .  A
C485        C723   1.482       .  S
C485       C2790   1.396       .  A
C486        H487   1.085       .  S
C486       C2789   1.396   1_455  A
C489       C1115   1.480       .  S
C489        C490   1.413       .  A
C489        C494   1.402       .  A
C490        C947   1.476       .  S
C490        C491   1.400       .  A
C491        H496   1.084       .  S
C491        C492   1.396       .  A
C492        C667   1.476       .  S
C492        C493   1.410       .  A
C493        C807   1.477       .  S
C493        C494   1.402       .  A
C494        H495   1.084       .  S
C497        C989   1.483       .  S
C497        C498   1.416       .  A
C497        C502   1.404       .  A
C498        C933   1.488       .  S
C498        C499   1.404       .  A
C499        H504   1.084       .  S
C499       C1652   1.407       .  A
C500        C706   1.483       .  S
C500        C501   1.413       .  A
C500       C1651   1.410       .  A
C501        C793   1.485       .  S
C501       C1654   1.399   1_545  A
C502        H503   1.084       .  S
C502       C1653   1.399       .  A
O505       Mg513   2.173   1_556  S
O505      Mg1659   2.143       .  S
O505        C540   1.232       .  S
C506        O519   1.235       .  S
C506        O543   1.269       .  A
C506        H545   1.081       .  S
Mg507       O536   2.163   1_556  S
Mg507      O1657   2.140   1_545  S
Mg507       O551   2.327   1_556  S
Mg507       O547   2.258       .  S
Mg507       O518   2.306       .  S
O508       Mg550   2.164   1_556  S
O508       Mg533   2.164       .  S
O508        C529   1.233       .  S
O509       C2844   1.265       .  A
O509       Mg533   2.285       .  S
C510        O512   1.273   1_655  A
C510       O2828   1.266   1_554  A
C510       C2610   1.460       .  S
O511       C1691   1.268       .  A
O511       Mg513   2.302       .  S
O512       Mg544   2.281       .  S
Mg513      O2823   2.156   1_455  S
Mg513       O527   2.259       .  S
Mg513       O515   2.275       .  S
C514        O520   1.276       .  A
C514       O1704   1.269       .  A
C514       C1330   1.469       .  S
O515        C522   1.268   1_454  A
H516        C529   1.081       .  S
C517        O531   1.233       .  S
C517       O2836   1.266       .  A
C517        H542   1.081       .  S
O518        C541   1.271       .  A
O519       Mg533   2.189   1_554  S
O519      Mg2817   2.156       .  S
O520       Mg550   2.319   1_556  S
C521        O534   1.271   1_556  A
C521        O526   1.270       .  A
C522       O2853   1.272       .  A
Mg523       O531   2.157   1_556  S
Mg523      O2834   2.168       .  S
Mg523       O524   2.259       .  S
Mg523       O525   2.301   1_545  S
Mg523       O552   2.278       .  S
O524       C2814   1.266   1_556  A
O525       C1681   1.268       .  A
O526       Mg533   2.281       .  S
O527        C546   1.269       .  A
O528        C548   1.273   1_554  A
O528       Mg544   2.299       .  S
C529       O1677   1.268       .  A
O530       Mg544   2.188   1_556  S
O530      Mg2827   2.170   1_455  S
O530        C541   1.235       .  S
O531      Mg1702   2.137   1_545  S
O532       C2821   1.266       .  A
O532       Mg544   2.291   1_655  S
Mg533       O549   2.277       .  S
O534       Mg550   2.256       .  S
H535        C540   1.081       .  S
O536       Mg544   2.169       .  S
O536        C539   1.233       .  S
H537        C539   1.081       .  S
H538        C541   1.081       .  S
C539       O1663   1.268   1_545  A
C540       O2813   1.265       .  A
O543       Mg550   2.299       .  S
C546       O1703   1.278       .  A
O547        C548   1.271       .  A
O549       C2826   1.272       .  A
Mg550      O1683   2.141       .  S
O551       C1698   1.278   1_545  A
O552       C1666   1.270       .  A
O553       Mg555   2.158       .  S
O553       Mg561   2.171       .  S
O553        C588   1.233       .  S
C554        O567   1.233       .  S
C554        O591   1.268       .  A
C554        H593   1.081       .  S
Mg555       O584   2.175       .  S
Mg555       O599   2.253       .  S
Mg555       O595   2.275       .  S
Mg555       O566   2.290       .  S
O556       Mg598   2.170       .  S
O556       Mg581   2.150       .  S
O556        C577   1.235       .  S
O557        C588   1.268       .  A
O557       Mg581   2.299       .  S
C558        O560   1.271       .  A
C558        O572   1.277       .  A
O559        C587   1.267       .  A
O559       Mg561   2.287       .  S
O560       Mg592   2.284       .  S
Mg561       O567   2.162       .  S
Mg561       O575   2.294       .  S
Mg561       O563   2.292       .  S
C562        O600   1.270       .  A
C562        O568   1.267       .  A
O563        C570   1.275       .  A
H564        C577   1.081       .  S
C565        O579   1.234       .  S
C565        O580   1.270       .  A
C565        H590   1.081       .  S
O566        C589   1.267       .  A
O567       Mg581   2.172       .  S
O568       Mg598   2.266       .  S
C569        O582   1.272       .  A
C569        O574   1.274       .  A
C570        O597   1.271       .  A
Mg571       O578   2.144       .  S
Mg571       O579   2.168       .  S
Mg571       O572   2.319       .  S
Mg571       O573   2.310       .  S
Mg571       O600   2.261       .  S
O573        C577   1.271       .  A
O574       Mg581   2.298       .  S
O575        C594   1.275       .  A
O576        C596   1.274       .  A
O576       Mg592   2.287       .  S
O578       Mg592   2.167       .  S
O578        C589   1.234       .  S
O579       Mg598   2.185       .  S
O580       Mg592   2.310       .  S
Mg581       O597   2.268       .  S
O582       Mg598   2.301       .  S
H583        C588   1.081       .  S
O584       Mg592   2.136       .  S
O584        C587   1.234       .  S
H585        C587   1.081       .  S
H586        C589   1.081       .  S
O591       Mg598   2.298       .  S
C594        O599   1.266       .  A
O595        C596   1.269       .  A
O601       Mg603   2.146       .  S
O601       Mg609   2.178       .  S
O601        C636   1.233       .  S
C602        O615   1.233       .  S
C602        O639   1.268       .  A
C602        H641   1.081       .  S
Mg603       O632   2.180       .  S
Mg603       O647   2.280       .  S
Mg603       O643   2.245       .  S
Mg603       O614   2.296       .  S
O604       Mg646   2.175       .  S
O604       Mg629   2.144       .  S
O604        C625   1.232       .  S
O605        C636   1.267       .  A
O605       Mg629   2.292       .  S
C606        O608   1.272       .  A
C606        O620   1.274       .  A
O607        C635   1.266       .  A
O607       Mg609   2.294       .  S
O608       Mg640   2.273       .  S
Mg609       O615   2.167       .  S
Mg609       O623   2.305       .  S
Mg609       O611   2.288       .  S
C610        O648   1.276       .  A
C610        O616   1.270       .  A
O611        C618   1.274       .  A
H612        C625   1.081       .  S
C613        O627   1.232       .  S
C613        O628   1.266       .  A
C613        H638   1.081       .  S
O614        C637   1.267       .  A
O615       Mg629   2.192       .  S
O616       Mg646   2.278       .  S
C617        O630   1.269       .  A
C617        O622   1.273       .  A
C618        O645   1.271       .  A
Mg619       O626   2.167       .  S
Mg619       O627   2.176       .  S
Mg619       O620   2.286       .  S
Mg619       O621   2.290       .  S
Mg619       O648   2.296       .  S
O621        C625   1.266       .  A
O622       Mg629   2.292       .  S
O623        C642   1.277       .  A
O624        C644   1.274       .  A
O624       Mg640   2.291       .  S
O626       Mg640   2.193       .  S
O626        C637   1.233       .  S
O627       Mg646   2.148       .  S
O628       Mg640   2.290       .  S
Mg629       O645   2.264       .  S
O630       Mg646   2.260       .  S
H631        C636   1.081       .  S
O632       Mg640   2.152       .  S
O632        C635   1.232       .  S
H633        C635   1.081       .  S
H634        C637   1.081       .  S
O639       Mg646   2.293       .  S
C642        O647   1.270       .  A
O643        C644   1.267       .  A
C649        H656   1.083       .  S
C649        C650   1.410       .  A
C649        C654   1.405       .  A
C650        C651   1.418       .  A
C651        C652   1.409       .  A
C651        N658   1.438       .  S
C652        H657   1.084       .  S
C652        C653   1.403       .  A
C653        C654   1.409       .  A
C654        N655   1.439       .  S
N655        H659   1.046       .  S
N655        H660   1.044       .  S
N658        H661   1.046       .  S
N658        H662   1.046       .  S
C663        H670   1.083       .  S
C663        C664   1.410       .  A
C663        C668   1.405       .  A
C664        C665   1.425       .  A
C665        C666   1.392       .  A
C665        N672   1.430       .  S
C666        H671   1.084       .  S
C666        C667   1.394       .  A
C667        C668   1.403       .  A
C668        N669   1.432       .  S
N669        H673   1.046       .  S
N669        H674   1.045       .  S
N672        H675   1.045       .  S
N672        H676   1.044       .  S
C677        H684   1.084       .  S
C677        C678   1.406       .  A
C677        C682   1.407       .  A
C678        C679   1.416       .  A
C679        C680   1.402       .  A
C679        N686   1.433       .  S
C680        H685   1.084       .  S
C680        C681   1.401       .  A
C681        C682   1.421       .  A
C682        N683   1.437       .  S
N683        H687   1.045       .  S
N683        H688   1.043       .  S
N686        H689   1.046       .  S
N686        H690   1.046       .  S
C691        H698   1.084       .  S
C691        C692   1.399       .  A
C691        C696   1.398       .  A
C692        C693   1.407       .  A
C693        C694   1.406       .  A
C693        N700   1.438       .  S
C694        H699   1.083       .  S
C694        C695   1.409       .  A
C695       C1545   1.489       .  S
C695        C696   1.422       .  A
C696       N1849   1.433       .  S
N697       C1848   1.433       .  S
N697        H702   1.045   1_565  S
N697       H1853   1.044       .  S
N700        H703   1.046       .  S
N700        H704   1.046       .  S
H701       N1849   1.044       .  S
C705        H712   1.083       .  S
C705        C706   1.401       .  A
C705        C710   1.407       .  A
C706        C707   1.408       .  A
C707        C708   1.407       .  A
C707        N714   1.438   1_545  S
C708        H713   1.083   1_545  S
C708        C709   1.409       .  A
C709        C710   1.415       .  A
C710        N711   1.432       .  S
N711        H715   1.046       .  S
N711        H716   1.046       .  S
N714       H1869   1.044       .  S
N714       H1870   1.046       .  S
H717       N1866   1.044       .  S
H718       N1866   1.046       .  S
C719        H726   1.084       .  S
C719        C720   1.409       .  A
C719        C724   1.401       .  A
C720        C721   1.417       .  A
C721        C722   1.399       .  A
C721        N728   1.433       .  S
C722        H727   1.084       .  S
C722        C723   1.403       .  A
C723        C724   1.415       .  A
C724        N725   1.439       .  S
N725        H729   1.046       .  S
N725        H730   1.042       .  S
N728        H731   1.046       .  S
N728        H732   1.044       .  S
C733        H740   1.083       .  S
C733        C734   1.402       .  A
C733        C738   1.404       .  A
C734        C735   1.405       .  A
C735        C736   1.402       .  A
C735        N742   1.438       .  S
C736       H3045   1.084       .  S
C736        C737   1.408       .  A
C737       C2734   1.479   1_455  S
C737        C738   1.413       .  A
C738        N739   1.438   1_455  S
N739        H743   1.046       .  S
N739        H744   1.046       .  S
H741       C3040   1.084       .  S
N742        H745   1.043       .  S
N742       H3050   1.046       .  S
H746       N3046   1.046       .  S
C747        H754   1.084       .  S
C747        C748   1.409       .  A
C747        C752   1.407       .  A
C748       C2698   1.498   1_455  S
C748       C3053   1.417       .  A
C749       C3052   1.414       .  A
C749       C3054   1.406       .  A
C749        N756   1.432       .  S
C750        H755   1.083       .  S
C750        C751   1.404       .  A
C750       C3053   1.410       .  A
C751        C752   1.416       .  A
C752        N753   1.439       .  S
N753        H757   1.046       .  S
N753        H758   1.043       .  S
N756        H759   1.046       .  S
N756        H760   1.046       .  S
C761        H768   1.084       .  S
C761        C762   1.405       .  A
C761        C766   1.402       .  A
C762       C1482   1.490       .  S
C762       C1915   1.418       .  A
C763       C1914   1.420       .  A
C763       C1916   1.408       .  A
C763        N770   1.438   1_565  S
C764        H769   1.084       .  S
C764        C765   1.402       .  A
C764       C1915   1.406       .  A
C765        C766   1.416       .  A
C766        N767   1.438       .  S
N767        H771   1.045       .  S
N767        H772   1.043       .  S
N770        H773   1.046       .  S
N770        H774   1.046       .  S
C775        H782   1.083       .  S
C775        C776   1.409       .  A
C775        C780   1.400       .  A
C776        C777   1.418       .  A
C777        C778   1.402       .  A
C777        N784   1.438       .  S
C778        H783   1.084       .  S
C778        C779   1.398       .  A
C779        C780   1.406       .  A
C780        N781   1.438       .  S
N781        H785   1.046       .  S
N781        H786   1.045       .  S
N784        H787   1.046       .  S
N784        H788   1.046       .  S
C789        H796   1.084       .  S
C789        C790   1.410       .  A
C789        C794   1.402       .  A
C790        C791   1.415   1_545  A
C791        C792   1.406       .  A
C791        N798   1.432       .  S
C792        H797   1.083       .  S
C792        C793   1.402   1_565  A
C793        C794   1.415       .  A
C794        N795   1.439       .  S
N795        H799   1.046       .  S
N795        H800   1.043       .  S
N798        H801   1.046       .  S
N798        H802   1.046       .  S
C803        H810   1.084       .  S
C803        C804   1.406       .  A
C803        C808   1.398       .  A
C804        C805   1.416       .  A
C805        C806   1.405       .  A
C805        N812   1.438       .  S
C806        H811   1.084       .  S
C806        C807   1.401       .  A
C807        C808   1.414       .  A
C808        N809   1.439       .  S
N809        H813   1.046       .  S
N809        H814   1.043       .  S
N812        H815   1.046       .  S
N812        H816   1.046       .  S
C817        H824   1.084   1_455  S
C817        C818   1.408       .  A
C817        C822   1.405       .  A
C818        C819   1.424       .  A
C819        C820   1.403       .  A
C819       N3130   1.433       .  S
C820        H825   1.083       .  S
C820        C821   1.400       .  A
C821        C822   1.407       .  A
C822        N823   1.432       .  S
N823        H827   1.046       .  S
N823        H828   1.045   1_455  S
N826       C3123   1.431       .  S
N826        H829   1.044       .  S
N826        H830   1.045       .  S
C831        H838   1.084       .  S
C831        C832   1.409       .  A
C831        C836   1.407       .  A
C832        C833   1.414       .  A
C833        C834   1.409       .  A
C833        N840   1.432       .  S
C834        H839   1.084       .  S
C834        C835   1.405       .  A
C835        C836   1.417       .  A
C836        N837   1.439       .  S
N837        H841   1.045       .  S
N837        H842   1.043       .  S
N840        H843   1.046       .  S
N840        H844   1.046       .  S
C845        H852   1.084       .  S
C845        C846   1.406       .  A
C845        C850   1.401       .  A
C846        C847   1.411       .  A
C847        C848   1.399       .  A
C847        N854   1.432       .  S
C848        H853   1.084       .  S
C848        C849   1.400       .  A
C849        C850   1.415       .  A
C850        N851   1.439       .  S
N851        H855   1.045       .  S
N851        H856   1.043       .  S
N854        H857   1.045       .  S
N854        H858   1.045       .  S
C859        H866   1.084       .  S
C859        C860   1.398       .  A
C859        C864   1.403       .  A
C860        C861   1.404       .  A
C861        C862   1.401       .  A
C861        N868   1.437       .  S
C862        H867   1.083       .  S
C862        C863   1.409       .  A
C863        C864   1.419       .  A
C864        N865   1.437       .  S
N865        H869   1.044       .  S
N865        H870   1.046       .  S
N868        H871   1.046       .  S
N868        H872   1.046       .  S
C873        H880   1.084       .  S
C873        C874   1.410       .  A
C873        C878   1.401       .  A
C874        C875   1.419       .  A
C875        C876   1.412       .  A
C875        N882   1.438       .  S
C876        H881   1.084       .  S
C876        C877   1.403       .  A
C877        C878   1.412       .  A
C878        N879   1.433       .  S
N879        H883   1.044       .  S
N879        H884   1.045       .  S
N882        H885   1.046       .  S
N882        H886   1.046       .  S
C887        H894   1.084       .  S
C887        C888   1.409       .  A
C887        C892   1.398       .  A
C888        C889   1.413       .  A
C889        C890   1.404       .  A
C889        N896   1.432       .  S
C890        H895   1.084       .  S
C890        C891   1.401       .  A
C891        C892   1.401       .  A
C892        N893   1.432       .  S
N893        H898   1.046       .  S
N893       H2049   1.045       .  S
N896        H899   1.045       .  S
N896        H900   1.046       .  S
H897       N2045   1.045       .  S
C901        H908   1.083       .  S
C901        C902   1.401       .  A
C901        C906   1.411       .  A
C902        C903   1.411       .  A
C903        C904   1.402       .  A
C903        N910   1.433       .  S
C904        H909   1.083       .  S
C904        C905   1.410       .  A
C905        C906   1.423       .  A
C906        N907   1.438       .  S
N907        H911   1.046       .  S
N907        H912   1.046       .  S
N910        H913   1.045       .  S
N910        H914   1.045       .  S
C915        H922   1.084       .  S
C915        C916   1.396       .  A
C915        C920   1.404       .  A
C916        C917   1.405       .  A
C917        C918   1.402       .  A
C917        N924   1.438       .  S
C918        H923   1.083       .  S
C918        C919   1.407       .  A
C919        C920   1.421       .  A
C920        N921   1.438       .  S
N921        H925   1.046       .  S
N921        H926   1.046       .  S
N924        H927   1.045       .  S
N924        H928   1.046       .  S
C929        H936   1.083       .  S
C929        C930   1.408       .  A
C929        C934   1.410       .  A
C930        C931   1.425       .  A
C931        C932   1.398       .  A
C931        N938   1.432       .  S
C932        H937   1.084       .  S
C932        C933   1.398       .  A
C933        C934   1.408       .  A
C934        N935   1.432       .  S
N935        H939   1.046       .  S
N935        H940   1.045       .  S
N938        H941   1.045       .  S
N938        H942   1.045       .  S
C943        H950   1.083       .  S
C943        C944   1.409       .  A
C943        C948   1.401       .  A
C944        C945   1.410       .  A
C945        C946   1.401       .  A
C945        N952   1.432       .  S
C946        H951   1.083       .  S
C946        C947   1.403       .  A
C947        C948   1.405       .  A
C948        N949   1.439       .  S
N949        H953   1.045       .  S
N949        H954   1.044       .  S
N952        H955   1.045       .  S
N952        H956   1.046       .  S
C957        H964   1.083       .  S
C957        C958   1.410       .  A
C957        C962   1.400       .  A
C958        C959   1.417       .  A
C959        C960   1.406       .  A
C959        N966   1.438       .  S
C960        H965   1.083       .  S
C960        C961   1.402       .  A
C961        C962   1.406       .  A
C962        N963   1.438       .  S
N963        H967   1.046       .  S
N963        H968   1.045       .  S
N966        H969   1.046       .  S
N966        H970   1.046       .  S
C971        H978   1.084       .  S
C971        C972   1.410       .  A
C971        C976   1.402       .  A
C972        C973   1.415   1_455  A
C973       C3278   1.415       .  A
C973       N3284   1.437       .  S
C974        H979   1.084       .  S
C974       C3277   1.415       .  A
C974       C3279   1.408       .  A
C975        C976   1.414       .  A
C975       C3278   1.407   1_455  A
C976        N977   1.439       .  S
N977        H981   1.046       .  S
N977        H982   1.043       .  S
N980       C3277   1.437       .  S
N980        H983   1.046       .  S
N980        H984   1.046       .  S
C985        H992   1.084       .  S
C985        C986   1.408       .  A
C985        C990   1.402       .  A
C986        C987   1.423       .  A
C987        C988   1.396       .  A
C987        N994   1.433       .  S
C988        H993   1.083       .  S
C988        C989   1.399       .  A
C989        C990   1.406       .  A
C990        N991   1.432       .  S
N991        H995   1.046       .  S
N991        H996   1.046       .  S
N994        H997   1.044       .  S
N994        H998   1.045       .  S
C999       H1006   1.084       .  S
C999       C1000   1.397       .  A
C999       C1004   1.407       .  A
C1000      C1001   1.418       .  A
C1001      C1002   1.408       .  A
C1001      N1008   1.438       .  S
C1002      H1007   1.083       .  S
C1002      C1003   1.408       .  A
C1003      C2374   1.503       .  S
C1003      C1004   1.425       .  A
C1004      N1005   1.438       .  S
N1005      H1009   1.046       .  S
N1005      H1010   1.046       .  S
N1008      H1011   1.043       .  S
N1008      H1012   1.046       .  S
C1013      H1020   1.084       .  S
C1013      C1014   1.403       .  A
C1013      C1018   1.409       .  A
C1014      C1015   1.412       .  A
C1015      C1016   1.411       .  A
C1015      N1022   1.438       .  S
C1016      H1021   1.083       .  S
C1016      C1017   1.409       .  A
C1017      C1018   1.416       .  A
C1018      N1019   1.437       .  S
N1019      H1023   1.046       .  S
N1019      H1024   1.046       .  S
N1022      H1025   1.042       .  S
N1022      H1026   1.046       .  S
C1027      H1034   1.084       .  S
C1027      C1028   1.404       .  A
C1027      C1032   1.402       .  A
C1028      C1029   1.410       .  A
C1029      C1030   1.408       .  A
C1029      N1036   1.431       .  S
C1030      H1035   1.084       .  S
C1030      C1031   1.407       .  A
C1031      C1032   1.411       .  A
C1032      N1033   1.432       .  S
N1033      H2189   1.044       .  S
N1033      H2190   1.046       .  S
N1036      H1039   1.045       .  S
N1036      H1040   1.046       .  S
H1037      N2185   1.044       .  S
H1038      N2185   1.045       .  S
C1041      H1048   1.084       .  S
C1041      C1042   1.411   1_565  A
C1041      C1046   1.401   1_565  A
C1042      C1270   1.492   1_545  S
C1042      C1043   1.417       .  A
C1043      C1044   1.405       .  A
C1043      N2202   1.438       .  S
C1044      H1049   1.083       .  S
C1044      C1045   1.403       .  A
C1045      C1046   1.410       .  A
C1046      N1047   1.433   1_545  S
N1047      H1051   1.044   1_565  S
N1047      H1052   1.044       .  S
N1050      C2195   1.438       .  S
N1050      H1053   1.046       .  S
N1050      H1054   1.046       .  S
C1055      H1062   1.082       .  S
C1055      C1056   1.401       .  A
C1055      C1060   1.394       .  A
C1056      C1057   1.410       .  A
C1057      C1058   1.400       .  A
C1057      N1064   1.440       .  S
C1058      H1063   1.084       .  S
C1058      C1059   1.403       .  A
C1059      C1060   1.406       .  A
C1060      N1061   1.433       .  S
N1061      H1065   1.045       .  S
N1061      H1066   1.045       .  S
N1064      H1067   1.043       .  S
N1064      H1068   1.045       .  S
C1069      H1076   1.083       .  S
C1069      C1070   1.409       .  A
C1069      C1074   1.403       .  A
C1070      C1071   1.413       .  A
C1071      C1072   1.405       .  A
C1071      N1078   1.432       .  S
C1072      H1077   1.084       .  S
C1072      C1073   1.402       .  A
C1073      C1074   1.407       .  A
C1074      N1075   1.437       .  S
N1075      H1079   1.045       .  S
N1075      H1080   1.041       .  S
N1078      H1081   1.045       .  S
N1078      H1082   1.045       .  S
C1083      H1090   1.084       .  S
C1083      C1084   1.404       .  A
C1083      C1088   1.408       .  A
C1084      C1085   1.415       .  A
C1085      C1086   1.400       .  A
C1085      N1092   1.438       .  S
C1086      H2243   1.084       .  S
C1086      C1087   1.407       .  A
C1087      C1260   1.488   1_545  S
C1087      C1088   1.414       .  A
C1088      N1089   1.438       .  S
N1089      H1093   1.046       .  S
N1089      H2246   1.046       .  S
H1091      C2238   1.084       .  S
N1092      H1095   1.042       .  S
N1092      H1096   1.046       .  S
H1094      N2241   1.046       .  S
C1097      H1104   1.084       .  S
C1097      C1098   1.400       .  A
C1097      C1102   1.396       .  A
C1098      C1099   1.406   1_455  A
C1099      C1100   1.406   1_655  A
C1099      N3410   1.437       .  S
C1100      H1105   1.083   1_455  S
C1100      C1101   1.411       .  A
C1101      C1102   1.421       .  A
C1102      N1103   1.432       .  S
N1103      H1107   1.043       .  S
N1103      H1108   1.045       .  S
N1106      C3403   1.437       .  S
N1106      H1109   1.046       .  S
N1106      H1110   1.045       .  S
C1111      H1118   1.083       .  S
C1111      C1112   1.408       .  A
C1111      C1116   1.403       .  A
C1112      C1113   1.418       .  A
C1113      C1114   1.407       .  A
C1113      N1120   1.437       .  S
C1114      H1119   1.084       .  S
C1114      C1115   1.400       .  A
C1115      C1116   1.406       .  A
C1116      N1117   1.437       .  S
N1117      H1121   1.045       .  S
N1117      H1122   1.045       .  S
N1120      H1123   1.045       .  S
N1120      H1124   1.046       .  S
C1125      H1132   1.084       .  S
C1125      C1126   1.407       .  A
C1125      C1130   1.402       .  A
C1126      C2322   1.487       .  S
C1126      C1127   1.423       .  A
C1127      C1128   1.399       .  A
C1127      N3438   1.432       .  S
C1128      H1133   1.084       .  S
C1128      C1129   1.399       .  A
C1129      C1130   1.405       .  A
C1130      N1131   1.431       .  S
N1131      H1135   1.046       .  S
N1131      H1136   1.045       .  S
N1134      C3431   1.433       .  S
N1134      H1137   1.045       .  S
N1134      H1138   1.045       .  S
C1139      H1146   1.084       .  S
C1139      C1140   1.398       .  A
C1139      C1144   1.406       .  A
C1140      C1141   1.410       .  A
C1141      C1142   1.403       .  A
C1141      N1148   1.433       .  S
C1142      H1147   1.084       .  S
C1142      C1143   1.404       .  A
C1143      C1144   1.422       .  A
C1144      N1145   1.439       .  S
N1145      H1149   1.046       .  S
N1145      H1150   1.046       .  S
N1148      H1151   1.046       .  S
N1148      H1152   1.046       .  S
O1153     Mg1155   2.163       .  S
O1153     Mg1161   2.173       .  S
O1153      C1188   1.234       .  S
C1154      O1167   1.233       .  S
C1154      O1191   1.268       .  A
C1154      H1193   1.081       .  S
Mg1155     O1184   2.168       .  S
Mg1155     O1199   2.281   1_455  S
Mg1155     O1195   2.261       .  S
Mg1155     O1166   2.301       .  S
O1156     Mg1198   2.164       .  S
O1156     Mg1181   2.145       .  S
O1156      C1177   1.234       .  S
O1157      C1188   1.270       .  A
O1157     Mg1181   2.305       .  S
C1158      O1160   1.270       .  A
C1158      O1172   1.277       .  A
C1158      C2264   1.494       .  S
O1159      C1187   1.268       .  A
O1159     Mg1161   2.294       .  S
O1160     Mg1192   2.256       .  S
Mg1161     O1167   2.155       .  S
Mg1161     O3479   2.264   1_455  S
Mg1161     O1163   2.309       .  S
C1162      O1200   1.271       .  A
C1162      O1168   1.267       .  A
C1162      C1714   1.452       .  S
O1163      C1170   1.275       .  A
H1164      C1177   1.081       .  S
C1165      O1179   1.236       .  S
C1165      O1180   1.271       .  A
C1165      H1190   1.081       .  S
O1166      C1189   1.268       .  A
O1167     Mg1181   2.154       .  S
O1168     Mg1198   2.269       .  S
C1169      O1182   1.270       .  A
C1169      O1174   1.276       .  A
C1169      C2295   1.493       .  S
C1170      O1197   1.272       .  A
C1170      C4582   1.487   1_455  S
Mg1171     O1178   2.146       .  S
Mg1171     O1179   2.171       .  S
Mg1171     O1172   2.316       .  S
Mg1171     O1173   2.297       .  S
Mg1171     O1200   2.257       .  S
O1173      C1177   1.268       .  A
O1174     Mg1181   2.320       .  S
O1175      C1194   1.274       .  A
O1175     Mg3465   2.279       .  S
O1176      C1196   1.272       .  A
O1176     Mg1192   2.297       .  S
O1178     Mg1192   2.141       .  S
O1178      C1189   1.233       .  S
O1179     Mg1198   2.168       .  S
O1180     Mg1192   2.311       .  S
Mg1181     O1197   2.251       .  S
O1182     Mg1198   2.258       .  S
H1183      C1188   1.081       .  S
O1184     Mg1192   2.148       .  S
O1184      C1187   1.234       .  S
H1185      C1187   1.081       .  S
H1186      C1189   1.081       .  S
O1191     Mg1198   2.298       .  S
C1194      O3503   1.269       .  A
C1194      C1746   1.463       .  S
O1195      C1196   1.271       .  A
C1196      C2253   1.492       .  S
O1199      C3498   1.269       .  A
C1201      C2292   1.488       .  S
C1201      C1202   1.421       .  A
C1201      C1206   1.400       .  A
C1202      C2236   1.482       .  S
C1202      C1203   1.408       .  A
C1203      H1208   1.084       .  S
C1203      C1204   1.399       .  A
C1204      C2225   1.487       .  S
C1204      C1205   1.412       .  A
C1205      C2208   1.475       .  S
C1205      C1206   1.398       .  A
C1206      H1207   1.085       .  S
C1209      C2281   1.482       .  S
C1209      C1210   1.411       .  A
C1209      C1214   1.400       .  A
C1210      C2197   1.489       .  S
C1210      C1211   1.402       .  A
C1211      H1216   1.083       .  S
C1211      C1212   1.410       .  A
C1212      C2180   1.492       .  S
C1212      C1213   1.424       .  A
C1213      C2166   1.490       .  S
C1213      C1214   1.406       .  A
C1214      H1215   1.084       .  S
O1217     Mg1219   2.139       .  S
O1217     Mg1225   2.167       .  S
O1217      C1252   1.235       .  S
C1218      O1231   1.234       .  S
C1218      O1255   1.268       .  A
C1218      H1257   1.081       .  S
Mg1219     O1248   2.168       .  S
Mg1219     O1259   2.268       .  S
Mg1219     O1230   2.302       .  S
O1220     Mg1262   2.162       .  S
O1220     Mg1245   2.150       .  S
O1220      C1241   1.234       .  S
O1221      C1252   1.269       .  A
O1221     Mg1245   2.295       .  S
C1222      O1224   1.277       .  A
C1222      O1236   1.272       .  A
C1222      C4459   1.503   1_455  S
O1223      C1251   1.269       .  A
O1223     Mg1225   2.299       .  S
O1224     Mg1256   2.315       .  S
Mg1225     O1231   2.155       .  S
Mg1225     O1227   2.258       .  S
C1226      O1264   1.270       .  A
C1226      O3536   1.275       .  A
C1226      C1748   1.463       .  S
O1227      C1234   1.267       .  A
H1228      C1241   1.081       .  S
C1229      O1243   1.235       .  S
C1229      O1244   1.270       .  A
C1229      H1254   1.081   1_455  S
O1230      C1253   1.269       .  A
O1231     Mg1245   2.173       .  S
O1232      C3530   1.276       .  A
O1232     Mg1262   2.296   1_655  S
C1233      O1246   1.278       .  A
C1233      O1238   1.276       .  A
C1233      C2124   1.501       .  S
C1234      O1261   1.273       .  A
C1234      C2138   1.488       .  S
Mg1235     O1242   2.158       .  S
Mg1235     O1243   2.177       .  S
Mg1235     O1236   2.288       .  S
Mg1235     O1237   2.300       .  S
Mg1235     O3568   2.271   1_455  S
O1237      C1241   1.269       .  A
O1238     Mg1245   2.302       .  S
O1239      C1258   1.269       .  A
O1240      C1260   1.278       .  A
O1240     Mg1256   2.311       .  S
O1242     Mg1256   2.169       .  S
O1242      C1253   1.234       .  S
O1243     Mg1262   2.167       .  S
O1244     Mg1256   2.303       .  S
Mg1245     O1261   2.282       .  S
O1246     Mg1262   2.320       .  S
H1247      C1252   1.081       .  S
O1248     Mg1256   2.167       .  S
O1248      C1251   1.234       .  S
H1249      C1251   1.081       .  S
H1250      C1253   1.081       .  S
O1255     Mg1262   2.296       .  S
C1258      O1263   1.279       .  A
C1258      C1721   1.478       .  S
O1259      C1260   1.273       .  A
O1264     Mg3539   2.279       .  S
O1265     Mg1267   2.142       .  S
O1265     Mg1273   2.184       .  S
O1265      C1300   1.237       .  S
C1266      O1279   1.236       .  S
C1266      O1303   1.272       .  A
C1266      H1305   1.081       .  S
Mg1267     O1296   2.147       .  S
Mg1267     O1311   2.310       .  S
Mg1267     O1307   2.285       .  S
Mg1267     O1278   2.312       .  S
O1268     Mg1310   2.144       .  S
O1268     Mg1293   2.153       .  S
O1268      C1289   1.233       .  S
O1269      C1300   1.271       .  A
O1269     Mg1293   2.299       .  S
C1270      O1272   1.268       .  A
C1270      O1284   1.272       .  A
O1271      C1299   1.264       .  A
O1271     Mg1273   2.287       .  S
O1272     Mg1304   2.255       .  S
Mg1273     O1279   2.167       .  S
Mg1273     O1287   2.293       .  S
Mg1273     O1275   2.255       .  S
C1274      O1312   1.270       .  A
C1274      C1722   1.464       .  S
O1275      C1282   1.269       .  A
H1276      C1289   1.081       .  S
C1277      O1291   1.238       .  S
C1277      O1292   1.273       .  A
C1277      H1302   1.081   1_565  S
O1278      C1301   1.271       .  A
O1279     Mg1293   2.159       .  S
O1280     Mg1310   2.320   1_545  S
C1281      O1294   1.277       .  A
C1281      O1286   1.272       .  A
C1281      C2082   1.498       .  S
C1282      O1309   1.269       .  A
C1282      C2096   1.477       .  S
Mg1283     O1290   2.140       .  S
Mg1283     O1291   2.182       .  S
Mg1283     O1284   2.297       .  S
Mg1283     O1285   2.301       .  S
O1285      C1289   1.268       .  A
O1286     Mg1293   2.298       .  S
O1287      C1306   1.272       .  A
O1288      C1308   1.270       .  A
O1288     Mg1304   2.268       .  S
O1290     Mg1304   2.141       .  S
O1290      C1301   1.235       .  S
O1291     Mg1310   2.165       .  S
O1292     Mg1304   2.304       .  S
Mg1293     O1309   2.261       .  S
O1294     Mg1310   2.323       .  S
H1295      C1300   1.081       .  S
O1296     Mg1304   2.139       .  S
O1296      C1299   1.231       .  S
H1297      C1299   1.081       .  S
H1298      C1301   1.081       .  S
O1303     Mg1310   2.317       .  S
C1306      O1311   1.277       .  A
C1306      C1710   1.473       .  S
O1307      C1308   1.273       .  A
C1308      C2110   1.486       .  S
C1313      C2152   1.491       .  S
C1313      C1314   1.415       .  A
C1313      C1318   1.414       .  A
C1314      C2113   1.485       .  S
C1314      C1315   1.396       .  A
C1315      H1320   1.085       .  S
C1315      C1316   1.394       .  A
C1316      C2068   1.473       .  S
C1316      C1317   1.413       .  A
C1317      C2054   1.497       .  S
C1317      C1318   1.414       .  A
C1318      H1319   1.083       .  S
O1321     Mg1323   2.157   1_554  S
O1321      C1356   1.237       .  S
C1322      O1335   1.234       .  S
C1322      O1359   1.270       .  A
C1322      H1361   1.081       .  S
Mg1323     O1334   2.299       .  S
O1324     Mg1349   2.160       .  S
O1324      C1345   1.237       .  S
O1325      C1356   1.273       .  A
O1325     Mg1349   2.315       .  S
C1326      O1328   1.270       .  A
C1326      O1340   1.269       .  A
C1326      C2040   1.486       .  S
O1327      C1355   1.271   1_554  A
O1327     Mg1329   2.303       .  S
O1328     Mg1360   2.274       .  S
Mg1329     O1335   2.169       .  S
Mg1329     O1343   2.288       .  S
C1330      O1368   1.269       .  A
C1330      O1336   1.276   1_556  A
O1331      C1338   1.272       .  A
H1332      C1345   1.081       .  S
C1333      O1347   1.237       .  S
C1333      O1348   1.273       .  A
C1333      H1358   1.081   1_556  S
O1334      C1357   1.268       .  A
C1337      O1350   1.273       .  A
C1337      O1342   1.275       .  A
C1337      C2183   1.488       .  S
C1338      O1365   1.270       .  A
C1338      C2222   1.491       .  S
Mg1339     O1346   2.158       .  S
Mg1339     O1341   2.306       .  S
Mg1339     O1368   2.280       .  S
O1341      C1345   1.272   1_556  A
O1342     Mg1349   2.302       .  S
O1343      C1362   1.271       .  A
O1344      C1364   1.275       .  A
O1344     Mg1360   2.299       .  S
O1346      C1357   1.233       .  S
O1347     Mg1366   2.138   1_556  S
O1348     Mg1360   2.313       .  S
Mg1349     O1365   2.277       .  S
H1351      C1356   1.081   1_556  S
O1352     Mg1360   2.157       .  S
O1352      C1355   1.236       .  S
H1353      C1355   1.081       .  S
H1354      C1357   1.081       .  S
O1359     Mg1366   2.310       .  S
C1362      O1367   1.277   1_554  A
C1362      C1698   1.469       .  S
O1363      C1364   1.275       .  A
C1364      C2026   1.498       .  S
O1369     Mg1371   2.150   1_556  S
O1369     Mg1377   2.184       .  S
O1369      C1404   1.236       .  S
C1370      O1383   1.236       .  S
C1370      O1407   1.271       .  A
C1370      H1409   1.081       .  S
Mg1371     O1400   2.142       .  S
Mg1371     O1415   2.276       .  S
Mg1371     O1411   2.259       .  S
Mg1371     O1382   2.305       .  S
O1372     Mg1414   2.147       .  S
O1372     Mg1397   2.133       .  S
O1372      C1393   1.232       .  S
O1373      C1404   1.270       .  A
O1373     Mg1397   2.299       .  S
C1374      O1376   1.266       .  A
C1374      O1388   1.272       .  A
C1374      C2211   1.465       .  S
O1375      C1403   1.264   1_556  A
O1375     Mg1377   2.287       .  S
O1376     Mg1408   2.217       .  S
Mg1377     O1383   2.143       .  S
Mg1377     O1391   2.256       .  S
Mg1377     O1379   2.306       .  S
C1378      O1416   1.273       .  A
C1378      O1384   1.269   1_554  A
C1378      C1700   1.460   1_554  S
O1379      C1386   1.275       .  A
H1380      C1393   1.081       .  S
C1381      O1395   1.237       .  S
C1381      O1396   1.270       .  A
C1381      H1406   1.081   1_554  S
O1382      C1405   1.270       .  A
O1383     Mg1397   2.147       .  S
O1384     Mg1414   2.286       .  S
C1385      O1398   1.266       .  A
C1385      O1390   1.269       .  A
C1385      C2015   1.480       .  S
C1386      O1413   1.267       .  A
C1386      C1998   1.478       .  S
Mg1387     O1394   2.141       .  S
Mg1387     O1395   2.175       .  S
Mg1387     O1388   2.280       .  S
Mg1387     O1389   2.285       .  S
Mg1387     O1416   2.270       .  S
O1389      C1393   1.264   1_554  A
O1390     Mg1397   2.279       .  S
O1391      C1410   1.272       .  A
O1392      C1412   1.269       .  A
O1392     Mg1408   2.281       .  S
O1394     Mg1408   2.147       .  S
O1394      C1405   1.235       .  S
O1395     Mg1414   2.127   1_554  S
O1396     Mg1408   2.292       .  S
Mg1397     O1413   2.231       .  S
O1398     Mg1414   2.223       .  S
H1399      C1404   1.081       .  S
O1400     Mg1408   2.127       .  S
O1400      C1403   1.231       .  S
H1401      C1403   1.081       .  S
H1402      C1405   1.081       .  S
O1407     Mg1414   2.309       .  S
C1410      O1415   1.269   1_556  A
C1410      C1673   1.451       .  S
O1411      C1412   1.270       .  A
C1412      C2071   1.482       .  S
O1417     Mg1419   2.173   1_556  S
O1417     Mg3729   2.175   1_455  S
O1417      C1452   1.233       .  S
C1418      O1431   1.234       .  S
C1418      O1455   1.268       .  A
C1418      H1457   1.081       .  S
Mg1419     O3752   2.179   1_455  S
Mg1419     O3767   2.272   1_455  S
Mg1419     O3763   2.261   1_455  S
Mg1419     O1430   2.288       .  S
O1420     Mg3766   2.175   1_455  S
O1420     Mg1445   2.166       .  S
O1420      C1441   1.235       .  S
O1421      C1452   1.268       .  A
O1421     Mg1445   2.301       .  S
C1422      O1424   1.278       .  A
C1422      O1436   1.279       .  A
C1422      C2057   1.506       .  S
O1423      C1451   1.270   1_556  A
O1423     Mg1425   2.303       .  S
O1424     Mg1456   2.299       .  S
Mg1425     O3721   2.172       .  S
Mg1425     O1431   2.148       .  S
Mg1425     O1439   2.266       .  S
Mg1425     O3731   2.336       .  S
C1426      O1464   1.273   1_556  A
C1426      O1432   1.268       .  A
C1426      C1674   1.462       .  S
O1427      C1434   1.281       .  A
O1427     Mg3729   2.339   1_455  S
H1428      C1441   1.081       .  S
C1429      O1443   1.234       .  S
C1429      O1444   1.269       .  A
C1429      H1454   1.081   1_554  S
O1430      C1453   1.266       .  A
O1431     Mg3749   2.161       .  S
O1432     Mg3766   2.281       .  S
C1433      O1446   1.271   1_455  A
C1433      O1438   1.275       .  A
C1433      C1970   1.490       .  S
C1434      O1461   1.274       .  A
C1434      C1984   1.501       .  S
Mg1435     O1442   2.147       .  S
Mg1435     O3747   2.173       .  S
Mg1435     O3740   2.324       .  S
Mg1435     O1437   2.300   1_655  S
Mg1435     O1464   2.272       .  S
O1436     Mg3739   2.329       .  S
O1437      C1441   1.270   1_554  A
O1438     Mg1445   2.313       .  S
O1439      C1458   1.272   1_556  A
O1440      C1460   1.278       .  A
O1440     Mg1456   2.325       .  S
O1442     Mg3760   2.163       .  S
O1442      C1453   1.233   1_655  S
O1443     Mg3739   2.176       .  S
O1443     Mg1462   2.168   1_554  S
O1444     Mg1456   2.303       .  S
Mg1445     O3735   2.162   1_455  S
Mg1445     O1461   2.284       .  S
O1446     Mg3766   2.251       .  S
H1447      C1452   1.081   1_554  S
O1448     Mg3723   2.181       .  S
O1448     Mg1456   2.173       .  S
O1448      C1451   1.235       .  S
H1449      C1451   1.081       .  S
H1450      C1453   1.081       .  S
O1455     Mg1462   2.298       .  S
Mg1456     O3746   2.160       .  S
C1458      O1463   1.268       .  A
C1458      C3966   1.459       .  S
O1459      C1460   1.271       .  A
O1459     Mg3723   2.255       .  S
C1460      C2169   1.493       .  S
Mg1462     O3724   2.174       .  S
Mg1462     O3736   2.284       .  S
Mg1462     O3750   2.253       .  S
O1463     Mg3723   2.277       .  S
O1465     Mg1467   2.164       .  S
O1465     Mg1473   2.161       .  S
O1465      C1500   1.236       .  S
C1466      O1479   1.237       .  S
C1466      O1503   1.273       .  A
C1466      H1505   1.081       .  S
Mg1467     O1496   2.147       .  S
Mg1467     O1511   2.307       .  S
Mg1467     O1507   2.272       .  S
Mg1467     O1478   2.308       .  S
O1468     Mg1510   2.138       .  S
O1468     Mg1493   2.136       .  S
O1468      C1489   1.233       .  S
O1469      C1500   1.271       .  A
O1469     Mg1493   2.304       .  S
C1470      O1472   1.269       .  A
C1470      O1484   1.275       .  A
C1470      C1956   1.487       .  S
O1471      C1499   1.268       .  A
O1471     Mg1473   2.302       .  S
O1472     Mg1504   2.246       .  S
Mg1473     O1479   2.151       .  S
Mg1473     O1475   2.329       .  S
C1474      O1512   1.274       .  A
C1474      O1480   1.271       .  A
C1474      C1758   1.463       .  S
O1475      C1482   1.278       .  A
H1476      C1489   1.081       .  S
C1477      O1491   1.235       .  S
C1477      O1492   1.270       .  A
C1477      H1502   1.081       .  S
O1478      C1501   1.272       .  A
O1479     Mg1493   2.144       .  S
O1480     Mg1510   2.300       .  S
C1481      O1494   1.267       .  A
C1481      O1486   1.269       .  A
C1481      C1928   1.486       .  S
C1482      O1509   1.265       .  A
Mg1483     O1490   2.160       .  S
Mg1483     O1491   2.156       .  S
Mg1483     O1484   2.303       .  S
Mg1483     O1485   2.297       .  S
Mg1483     O1512   2.275       .  S
O1485      C1489   1.267       .  A
O1486     Mg1493   2.279       .  S
O1487      C1506   1.273       .  A
O1488      C1508   1.273       .  A
O1488     Mg1504   2.292       .  S
O1490     Mg1504   2.153       .  S
O1490      C1501   1.236       .  S
O1491     Mg1510   2.145       .  S
O1492     Mg1504   2.301       .  S
Mg1493     O1509   2.225       .  S
O1494     Mg1510   2.250       .  S
H1495      C1500   1.081       .  S
O1496     Mg1504   2.146       .  S
O1496      C1499   1.233       .  S
H1497      C1499   1.081       .  S
H1498      C1501   1.081       .  S
O1503     Mg1510   2.315       .  S
C1506      C1770   1.457       .  S
O1507      C1508   1.271       .  A
C1508      C1942   1.493       .  S
C1513      C2012   1.469       .  S
C1513      C1514   1.412       .  A
C1513      C1518   1.392       .  A
C1514      C1987   1.494       .  S
C1514      C1515   1.415       .  A
C1515      H1520   1.083       .  S
C1515      C1516   1.415       .  A
C1516      C1903   1.490       .  S
C1516      C1517   1.411       .  A
C1517      C1931   1.472       .  S
C1517      C1518   1.389       .  A
C1518      H1519   1.086       .  S
C1521      C1973   1.486       .  S
C1521      C1522   1.419       .  A
C1521      C1526   1.402       .  A
C1522      C2029   1.487       .  S
C1522      C1523   1.411       .  A
C1523      H1528   1.084       .  S
C1523      C1524   1.404       .  A
C1524      C1917   1.490       .  S
C1524      C1525   1.410       .  A
C1525      C1886   1.475       .  S
C1525      C1526   1.397       .  A
C1526      H1527   1.085       .  S
O1529     Mg1531   2.170       .  S
O1529     Mg1537   2.160       .  S
O1529      C1564   1.234       .  S
C1530      O1543   1.236       .  S
C1530      O1567   1.271       .  A
C1530      H1569   1.081       .  S
Mg1531     O1560   2.158       .  S
Mg1531     O1575   2.288       .  S
Mg1531     O1571   2.261       .  S
Mg1531     O1542   2.297       .  S
O1532     Mg1574   2.154       .  S
O1532     Mg1557   2.161       .  S
O1532      C1553   1.235       .  S
O1533      C1564   1.269       .  A
O1533     Mg1557   2.303       .  S
C1534      O1536   1.272       .  A
C1534      O1548   1.278       .  A
C1534      C1861   1.493       .  S
O1535      C1563   1.269       .  A
O1535     Mg1537   2.305       .  S
O1536     Mg1568   2.259       .  S
Mg1537     O1543   2.160       .  S
Mg1537     O3855   2.273       .  S
Mg1537     O1539   2.328       .  S
C1538      O1576   1.272       .  A
C1538      O1544   1.270       .  A
C1538      C1769   1.461       .  S
O1539      C1546   1.278       .  A
H1540      C1553   1.081       .  S
C1541      O1555   1.233       .  S
C1541      O1556   1.268       .  A
C1541      H1566   1.081       .  S
O1542      C1565   1.269       .  A
O1543     Mg1557   2.163       .  S
C1545      O1558   1.266       .  A
C1545      O1550   1.276       .  A
C1546      O1573   1.274       .  A
C1546      C4204   1.496       .  S
Mg1547     O1554   2.147       .  S
Mg1547     O1555   2.148       .  S
Mg1547     O1548   2.318       .  S
Mg1547     O1549   2.307       .  S
O1549      C1553   1.271       .  A
O1550     Mg1557   2.315       .  S
O1551      C1570   1.274       .  A
O1551     Mg3841   2.278   1_455  S
O1552      C1572   1.274       .  A
O1552     Mg1568   2.296       .  S
O1554     Mg1568   2.162       .  S
O1554      C1565   1.235       .  S
O1555     Mg1574   2.149       .  S
O1556     Mg1568   2.296       .  S
Mg1557     O1573   2.278       .  S
O1558     Mg1574   2.235       .  S
H1559      C1564   1.081       .  S
O1560     Mg1568   2.153       .  S
O1560      C1563   1.234       .  S
H1561      C1563   1.081       .  S
H1562      C1565   1.081       .  S
O1567     Mg1574   2.303       .  S
C1570      O3879   1.268       .  A
C1570      C1796   1.457       .  S
O1571      C1572   1.269       .  A
C1572      C1872   1.489       .  S
O1575      C3874   1.269       .  A
O1577     Mg1579   2.145       .  S
O1577     Mg1585   2.122       .  S
O1577      C1612   1.237       .  S
C1578      O1591   1.234       .  S
C1578      O1615   1.270       .  A
C1578      H1617   1.081       .  S
Mg1579     O1608   2.155       .  S
Mg1579     O1623   2.327       .  S
Mg1579     O1619   2.286       .  S
Mg1579     O1590   2.310       .  S
O1580     Mg1622   2.168       .  S
O1580     Mg1605   2.151       .  S
O1580      C1601   1.236       .  S
O1581      C1612   1.274       .  A
O1581     Mg1605   2.325       .  S
C1582      O1584   1.268       .  A
C1582      O1596   1.270       .  A
C1582      C4193   1.484       .  S
O1583      C1611   1.274       .  A
O1583     Mg1585   2.317       .  S
O1584     Mg1616   2.261       .  S
Mg1585     O1591   2.165       .  S
Mg1585     O1599   2.271       .  S
Mg1585     O1587   2.273       .  S
C1586      O1624   1.271       .  A
C1586      O3896   1.278       .  A
C1586      C1794   1.475       .  S
O1587      C1594   1.265       .  A
H1588      C1601   1.081       .  S
C1589      O1603   1.236       .  S
C1589      O1604   1.272       .  A
C1589      H1614   1.081       .  S
O1590      C1613   1.270       .  A
O1591     Mg1605   2.148       .  S
O1592      C3890   1.279       .  A
O1592     Mg1622   2.330       .  S
C1593      O1606   1.277       .  A
C1593      O1598   1.273       .  A
C1593      C1830   1.495       .  S
C1594      O1621   1.268       .  A
C1594      C1816   1.490       .  S
Mg1595     O1602   2.175       .  S
Mg1595     O1603   2.140       .  S
Mg1595     O1596   2.280       .  S
Mg1595     O1597   2.307       .  S
Mg1595     O3928   2.285       .  S
O1597      C1601   1.271       .  A
O1598     Mg1605   2.286       .  S
O1599      C1618   1.265       .  A
O1600      C1620   1.273       .  A
O1600     Mg1616   2.291       .  S
O1602     Mg1616   2.154       .  S
O1602      C1613   1.235       .  S
O1603     Mg1622   2.150       .  S
O1604     Mg1616   2.309       .  S
Mg1605     O1621   2.281       .  S
O1606     Mg1622   2.310       .  S
H1607      C1612   1.081       .  S
O1608     Mg1616   2.153       .  S
O1608      C1611   1.237       .  S
H1609      C1611   1.081       .  S
H1610      C1613   1.081       .  S
O1615     Mg1622   2.308       .  S
C1618      O1623   1.276       .  A
C1618      C1762   1.469       .  S
O1619      C1620   1.273       .  A
C1620      C1802   1.493       .  S
O1624     Mg3899   2.293   1_455  S
C1625      C2001   1.479       .  S
C1625      C1626   1.408       .  A
C1625      C1630   1.400       .  A
C1626      C2043   1.476       .  S
C1626      C1627   1.396       .  A
C1627      H1632   1.085       .  S
C1627      C1628   1.403       .  A
C1628      C1844   1.479       .  S
C1628      C1629   1.419       .  A
C1629      C1805   1.488       .  S
C1629      C1630   1.405       .  A
C1630      H1631   1.084       .  S
C1633      C2250   1.478       .  S
C1633      C1634   1.416       .  A
C1633      C1638   1.397   1_455  A
C1634      C2127   1.491       .  S
C1634      C1635   1.407       .  A
C1635      H1640   1.084       .  S
C1635      C3940   1.411   1_455  A
C1636      C1833   1.493       .  S
C1636      C3939   1.410       .  A
C1636      C1637   1.418       .  A
C1637      C1875   1.483       .  S
C1637      C3942   1.399       .  A
C1638      H1639   1.085       .  S
C1638      C3941   1.395       .  A
C1641      C2267   1.485       .  S
C1641      C1642   1.413       .  A
C1641      C1646   1.405       .  A
C1642      C2099   1.475       .  S
C1642      C1643   1.400       .  A
C1643      H1648   1.084       .  S
C1643      C1644   1.396       .  A
C1644      C1819   1.475       .  S
C1644      C1645   1.410       .  A
C1645      C1959   1.482       .  S
C1645      C1646   1.405       .  A
C1646      H1647   1.084       .  S
C1649      C2141   1.480       .  S
C1649      C1650   1.416       .  A
C1649      C1654   1.404       .  A
C1650      C2085   1.494       .  S
C1650      C1651   1.407   1_565  A
C1651      H1656   1.084       .  S
C1652      C1858   1.481       .  S
C1652      C1653   1.413       .  A
C1653      C1945   1.483       .  S
C1654      H1655   1.085       .  S
O1657     Mg1665   2.163   1_556  S
O1657      C1692   1.233       .  S
C1658      O1671   1.235       .  S
C1658      O1695   1.270       .  A
C1658      H1697   1.081       .  S
Mg1659     O1688   2.169   1_556  S
Mg1659     O1703   2.320   1_556  S
Mg1659     O1699   2.259       .  S
Mg1659     O1670   2.302       .  S
O1660     Mg1702   2.168   1_556  S
O1660     Mg1685   2.168       .  S
O1660      C1681   1.233       .  S
O1661      C3996   1.265       .  A
O1661     Mg1685   2.287       .  S
C1662      O1664   1.275   1_655  A
C1662      O3980   1.266   1_554  A
C1662      C3762   1.458       .  S
O1663     Mg1665   2.301       .  S
O1664     Mg1696   2.284       .  S
Mg1665     O3975   2.159   1_455  S
Mg1665     O1679   2.263       .  S
Mg1665     O1667   2.268       .  S
C1666      O1672   1.277   1_545  A
O1667      C1674   1.267   1_454  A
H1668      C1681   1.081       .  S
C1669      O1683   1.233       .  S
C1669      O3988   1.267       .  A
C1669      H1694   1.081       .  S
O1670      C1693   1.269       .  A
O1671     Mg3969   2.153       .  S
O1671     Mg1685   2.189   1_554  S
O1672     Mg1702   2.327   1_556  S
C1673      O1686   1.270   1_556  A
C1673      O1678   1.269       .  A
C1674      O4005   1.272       .  A
Mg1675     O3986   2.167       .  S
Mg1675     O1683   2.157   1_556  S
Mg1675     O1676   2.259       .  S
Mg1675     O1677   2.300       .  S
Mg1675     O1704   2.270       .  S
O1676      C3966   1.266   1_556  A
O1678     Mg1685   2.274       .  S
O1679      C1698   1.269       .  A
O1680      C1700   1.274   1_554  A
O1680     Mg1696   2.302       .  S
O1682     Mg3979   2.165   1_455  S
O1682     Mg1696   2.181   1_556  S
O1682      C1693   1.234       .  S
O1684      C3973   1.267       .  A
O1684     Mg1696   2.291   1_655  S
Mg1685     O1701   2.280       .  S
O1686     Mg1702   2.250       .  S
H1687      C1692   1.081       .  S
O1688     Mg1696   2.171       .  S
O1688      C1691   1.232       .  S
H1689      C1691   1.081       .  S
H1690      C1693   1.081       .  S
C1692      O3965   1.266       .  A
O1695     Mg1702   2.299       .  S
O1699      C1700   1.272       .  A
O1701      C3978   1.272       .  A
O1705     Mg1707   2.162       .  S
O1705     Mg1713   2.176       .  S
O1705      C1740   1.233       .  S
C1706      O1719   1.234       .  S
C1706      O1743   1.269       .  A
C1706      H1745   1.081       .  S
Mg1707     O1736   2.182       .  S
Mg1707     O1751   2.260       .  S
Mg1707     O1747   2.278       .  S
Mg1707     O1718   2.288       .  S
O1708     Mg1750   2.160       .  S
O1708     Mg1733   2.151       .  S
O1708      C1729   1.235       .  S
O1709      C1740   1.268       .  A
O1709     Mg1733   2.297       .  S
C1710      O1712   1.272       .  A
C1710      O1724   1.277       .  A
O1711      C1739   1.268       .  A
O1711     Mg1713   2.292       .  S
O1712     Mg1744   2.292       .  S
Mg1713     O1719   2.168       .  S
Mg1713     O1727   2.300       .  S
Mg1713     O1715   2.303       .  S
C1714      O1752   1.271       .  A
C1714      O1720   1.268       .  A
O1715      C1722   1.276       .  A
H1716      C1729   1.081       .  S
C1717      O1731   1.235       .  S
C1717      O1732   1.271       .  A
C1717      H1742   1.081       .  S
O1718      C1741   1.266       .  A
O1719     Mg1733   2.174       .  S
O1720     Mg1750   2.265       .  S
C1721      O1734   1.273       .  A
C1721      O1726   1.274       .  A
C1722      O1749   1.271       .  A
Mg1723     O1730   2.143       .  S
Mg1723     O1731   2.173       .  S
Mg1723     O1724   2.312       .  S
Mg1723     O1725   2.306       .  S
Mg1723     O1752   2.262       .  S
O1725      C1729   1.270       .  A
O1726     Mg1733   2.304       .  S
O1727      C1746   1.276       .  A
O1728      C1748   1.275       .  A
O1728     Mg1744   2.296       .  S
O1730     Mg1744   2.166       .  S
O1730      C1741   1.233       .  S
O1731     Mg1750   2.191       .  S
O1732     Mg1744   2.313       .  S
Mg1733     O1749   2.275       .  S
O1734     Mg1750   2.312       .  S
H1735      C1740   1.081       .  S
O1736     Mg1744   2.141       .  S
O1736      C1739   1.234       .  S
H1737      C1739   1.081       .  S
H1738      C1741   1.081       .  S
O1743     Mg1750   2.302       .  S
C1746      O1751   1.267       .  A
O1747      C1748   1.270       .  A
O1753     Mg1755   2.142       .  S
O1753     Mg1761   2.174       .  S
O1753      C1788   1.233       .  S
C1754      O1767   1.234       .  S
C1754      O1791   1.268       .  A
C1754      H1793   1.081       .  S
Mg1755     O1784   2.178       .  S
Mg1755     O1799   2.287       .  S
Mg1755     O1795   2.244       .  S
Mg1755     O1766   2.297       .  S
O1756     Mg1798   2.175       .  S
O1756     Mg1781   2.146       .  S
O1756      C1777   1.233       .  S
O1757      C1788   1.267       .  A
O1757     Mg1781   2.290       .  S
C1758      O1760   1.272       .  A
C1758      O1772   1.274       .  A
O1759      C1787   1.266       .  A
O1759     Mg1761   2.291       .  S
O1760     Mg1792   2.270       .  S
Mg1761     O1767   2.169       .  S
Mg1761     O1775   2.308       .  S
Mg1761     O1763   2.279       .  S
C1762      O1800   1.276       .  A
C1762      O1768   1.271       .  A
O1763      C1770   1.273       .  A
H1764      C1777   1.081       .  S
C1765      O1779   1.232       .  S
C1765      O1780   1.266       .  A
C1765      H1790   1.081       .  S
O1766      C1789   1.268       .  A
O1767     Mg1781   2.193       .  S
O1768     Mg1798   2.281       .  S
C1769      O1782   1.269       .  A
C1769      O1774   1.273       .  A
C1770      O1797   1.271       .  A
Mg1771     O1778   2.167       .  S
Mg1771     O1779   2.173       .  S
Mg1771     O1772   2.291       .  S
Mg1771     O1773   2.292       .  S
Mg1771     O1800   2.294       .  S
O1773      C1777   1.266       .  A
O1774     Mg1781   2.289       .  S
O1775      C1794   1.277       .  A
O1776      C1796   1.273       .  A
O1776     Mg1792   2.286       .  S
O1778     Mg1792   2.193       .  S
O1778      C1789   1.234       .  S
O1779     Mg1798   2.147       .  S
O1780     Mg1792   2.290       .  S
Mg1781     O1797   2.262       .  S
O1782     Mg1798   2.263       .  S
H1783      C1788   1.081       .  S
O1784     Mg1792   2.151       .  S
O1784      C1787   1.232       .  S
H1785      C1787   1.081       .  S
H1786      C1789   1.081       .  S
O1791     Mg1798   2.294       .  S
C1794      O1799   1.271       .  A
O1795      C1796   1.267       .  A
C1801      H1808   1.083       .  S
C1801      C1802   1.409       .  A
C1801      C1806   1.405       .  A
C1802      C1803   1.417       .  A
C1803      C1804   1.409       .  A
C1803      N1810   1.438       .  S
C1804      H1809   1.084       .  S
C1804      C1805   1.403       .  A
C1805      C1806   1.411       .  A
C1806      N1807   1.439       .  S
N1807      H1811   1.046       .  S
N1807      H1812   1.044       .  S
N1810      H1813   1.046       .  S
N1810      H1814   1.046       .  S
C1815      H1822   1.083       .  S
C1815      C1816   1.410       .  A
C1815      C1820   1.405       .  A
C1816      C1817   1.424       .  A
C1817      C1818   1.391       .  A
C1817      N1824   1.429       .  S
C1818      H1823   1.084       .  S
C1818      C1819   1.393       .  A
C1819      C1820   1.404       .  A
C1820      N1821   1.432       .  S
N1821      H1825   1.046       .  S
N1821      H1826   1.045       .  S
N1824      H1827   1.045       .  S
N1824      H1828   1.043       .  S
C1829      H1836   1.084       .  S
C1829      C1830   1.407       .  A
C1829      C1834   1.409       .  A
C1830      C1831   1.416       .  A
C1831      C1832   1.403       .  A
C1831      N1838   1.433       .  S
C1832      H1837   1.084       .  S
C1832      C1833   1.402       .  A
C1833      C1834   1.420       .  A
C1834      N1835   1.437       .  S
N1835      H1839   1.045       .  S
N1835      H1840   1.043       .  S
N1838      H1841   1.046       .  S
N1838      H1842   1.046       .  S
C1843      H1850   1.084       .  S
C1843      C1844   1.399       .  A
C1843      C1848   1.397       .  A
C1844      C1845   1.408       .  A
C1845      C1846   1.405       .  A
C1845      N1852   1.438       .  S
C1846      H1851   1.084   1_565  S
C1846      C1847   1.409   1_565  A
C1847      C1848   1.421   1_545  A
N1849      H1854   1.046       .  S
N1852      H1855   1.046       .  S
N1852      H1856   1.046       .  S
C1857      H1864   1.083       .  S
C1857      C1858   1.399       .  A
C1857      C1862   1.405       .  A
C1858      C1859   1.408       .  A
C1859      C1860   1.407       .  A
C1859      N1866   1.438       .  S
C1860      H1865   1.083       .  S
C1860      C1861   1.409       .  A
C1861      C1862   1.416       .  A
C1862      N1863   1.432       .  S
N1863      H1867   1.046       .  S
N1863      H1868   1.046       .  S
C1871      H1878   1.084       .  S
C1871      C1872   1.409       .  A
C1871      C1876   1.401       .  A
C1872      C1873   1.417       .  A
C1873      C1874   1.400       .  A
C1873      N1880   1.432       .  S
C1874      H1879   1.084       .  S
C1874      C1875   1.404       .  A
C1875      C1876   1.414       .  A
C1876      N1877   1.439       .  S
N1877      H1881   1.046       .  S
N1877      H1882   1.042       .  S
N1880      H1883   1.046       .  S
N1880      H1884   1.044       .  S
C1885      H1892   1.083       .  S
C1885      C1886   1.402       .  A
C1885      C1890   1.402       .  A
C1886      C1887   1.405       .  A
C1887      C1888   1.400       .  A
C1887      N1894   1.438       .  S
C1888      H4197   1.084       .  S
C1888      C1889   1.407       .  A
C1889      C3886   1.473   1_455  S
C1889      C1890   1.410       .  A
C1890      N1891   1.437   1_455  S
N1891      H1895   1.046       .  S
N1891      H1896   1.046   1_655  S
H1893      C4192   1.083       .  S
N1894      H1897   1.044       .  S
N1894      H4202   1.046       .  S
H1898      N4198   1.046       .  S
C1899      H1906   1.083       .  S
C1899      C1900   1.410       .  A
C1899      C1904   1.408       .  A
C1900      C3850   1.501   1_455  S
C1900      C4205   1.416       .  A
C1901      C4204   1.413       .  A
C1901      C4206   1.409       .  A
C1901      N1908   1.438       .  S
C1902      H1907   1.083       .  S
C1902      C4205   1.407       .  A
C1902      C1903   1.402       .  A
C1903      C1904   1.417       .  A
C1904      N1905   1.438       .  S
N1905      H1909   1.045       .  S
N1905      H1910   1.043       .  S
N1908      H1911   1.046       .  S
N1908      H1912   1.046       .  S
C1913      H1920   1.084       .  S
C1913      C1914   1.406       .  A
C1913      C1918   1.404       .  A
C1915      N1922   1.438       .  S
C1916      H1921   1.084       .  S
C1916      C1917   1.401       .  A
C1917      C1918   1.416       .  A
C1918      N1919   1.438       .  S
N1919      H1923   1.045       .  S
N1919      H1924   1.043       .  S
N1922      H1925   1.046       .  S
N1922      H1926   1.046       .  S
C1927      H1934   1.083       .  S
C1927      C1928   1.410       .  A
C1927      C1932   1.402       .  A
C1928      C1929   1.417       .  A
C1929      C1930   1.402       .  A
C1929      N1936   1.438       .  S
C1930      H1935   1.083       .  S
C1930      C1931   1.398       .  A
C1931      C1932   1.405       .  A
C1932      N1933   1.438       .  S
N1933      H1937   1.046       .  S
N1933      H1938   1.045       .  S
N1936      H1939   1.046       .  S
N1936      H1940   1.046       .  S
C1941      H1948   1.084       .  S
C1941      C1942   1.409       .  A
C1941      C1946   1.401       .  A
C1942      C1943   1.414       .  A
C1943      C1944   1.406       .  A
C1943      N1950   1.432       .  S
C1944      H1949   1.084       .  S
C1944      C1945   1.402       .  A
C1945      C1946   1.415       .  A
C1946      N1947   1.439       .  S
N1947      H1951   1.045       .  S
N1947      H1952   1.043       .  S
N1950      H1953   1.046       .  S
N1950      H1954   1.046       .  S
C1955      H1962   1.084       .  S
C1955      C1956   1.407       .  A
C1955      C1960   1.400       .  A
C1956      C1957   1.416       .  A
C1957      C1958   1.406       .  A
C1957      N1964   1.438       .  S
C1958      H1963   1.084       .  S
C1958      C1959   1.402       .  A
C1959      C1960   1.415       .  A
C1960      N1961   1.439       .  S
N1961      H1965   1.046       .  S
N1961      H1966   1.043       .  S
N1964      H1967   1.046       .  S
N1964      H1968   1.046       .  S
C1969      H1976   1.084   1_455  S
C1969      C1970   1.407       .  A
C1969      C1974   1.403       .  A
C1970      C1971   1.423       .  A
C1971      C1972   1.402       .  A
C1971      N4282   1.433       .  S
C1972      H1977   1.084       .  S
C1972      C1973   1.401       .  A
C1973      C1974   1.407       .  A
C1974      N1975   1.432       .  S
N1975      H1979   1.046   1_455  S
N1975      H1980   1.045   1_455  S
N1978      C4275   1.433       .  S
N1978      H1981   1.045       .  S
N1978      H1982   1.045       .  S
C1983      H1990   1.084       .  S
C1983      C1984   1.410       .  A
C1983      C1988   1.407       .  A
C1984      C1985   1.418       .  A
C1985      C1986   1.412       .  A
C1985      N1992   1.438       .  S
C1986      H1991   1.084       .  S
C1986      C1987   1.405       .  A
C1987      C1988   1.416       .  A
C1988      N1989   1.439       .  S
N1989      H1993   1.045       .  S
N1989      H1994   1.043       .  S
N1992      H1995   1.045       .  S
N1992      H1996   1.046       .  S
C1997      H2004   1.084       .  S
C1997      C1998   1.405       .  A
C1997      C2002   1.401       .  A
C1998      C1999   1.410       .  A
C1999      C2000   1.399       .  A
C1999      N2006   1.432       .  S
C2000      H2005   1.084       .  S
C2000      C2001   1.401       .  A
C2001      C2002   1.417       .  A
C2002      N2003   1.440       .  S
N2003      H2007   1.045       .  S
N2003      H2008   1.042       .  S
N2006      H2009   1.045       .  S
N2006      H2010   1.046       .  S
C2011      H2018   1.084       .  S
C2011      C2012   1.399       .  A
C2011      C2016   1.398       .  A
C2012      C2013   1.404       .  A
C2013      C2014   1.401       .  A
C2013      N2020   1.437       .  S
C2014      H2019   1.083       .  S
C2014      C2015   1.409       .  A
C2015      C2016   1.413       .  A
C2016      N2017   1.432       .  S
N2017      H2021   1.044       .  S
N2017      H2022   1.046       .  S
N2020      H2023   1.045       .  S
N2020      H2024   1.046       .  S
C2025      H2032   1.084       .  S
C2025      C2026   1.410       .  A
C2025      C2030   1.402       .  A
C2026      C2027   1.418       .  A
C2027      C2028   1.411       .  A
C2027      N2034   1.438       .  S
C2028      H2033   1.084       .  S
C2028      C2029   1.403       .  A
C2029      C2030   1.414       .  A
C2030      N2031   1.439       .  S
N2031      H2035   1.045       .  S
N2031      H2036   1.043       .  S
N2034      H2037   1.046       .  S
N2034      H2038   1.046       .  S
C2039      H2046   1.083       .  S
C2039      C2040   1.409       .  A
C2039      C2044   1.398       .  A
C2040      C2041   1.415       .  A
C2041      C2042   1.405       .  A
C2041      N2048   1.432       .  S
C2042      H2047   1.084       .  S
C2042      C2043   1.401       .  A
C2043      C2044   1.401       .  A
C2044      N2045   1.432       .  S
N2045      H2050   1.045       .  S
N2048      H2051   1.046       .  S
N2048      H2052   1.046       .  S
C2053      H2060   1.084       .  S
C2053      C2054   1.404       .  A
C2053      C2058   1.414       .  A
C2054      C2055   1.413       .  A
C2055      C2056   1.404       .  A
C2055      N2062   1.433       .  S
C2056      H2061   1.083       .  S
C2056      C2057   1.410       .  A
C2057      C2058   1.422       .  A
C2058      N2059   1.438       .  S
N2059      H2063   1.046       .  S
N2059      H2064   1.046       .  S
N2062      H2065   1.045       .  S
N2062      H2066   1.045       .  S
C2067      H2074   1.084       .  S
C2067      C2068   1.396       .  A
C2067      C2072   1.402       .  A
C2068      C2069   1.408       .  A
C2069      C2070   1.404       .  A
C2069      N2076   1.438       .  S
C2070      H2075   1.083       .  S
C2070      C2071   1.405       .  A
C2071      C2072   1.419       .  A
C2072      N2073   1.438       .  S
N2073      H2077   1.045       .  S
N2073      H2078   1.046       .  S
N2076      H2079   1.045       .  S
N2076      H2080   1.046       .  S
C2081      H2088   1.083       .  S
C2081      C2082   1.408   1_545  A
C2081      C2086   1.413       .  A
C2082      C2083   1.424       .  A
C2083      C2084   1.398       .  A
C2083      N2090   1.432       .  S
C2084      H2089   1.084       .  S
C2084      C2085   1.399       .  A
C2085      C2086   1.410   1_565  A
C2086      N2087   1.431       .  S
N2087      H2091   1.046       .  S
N2087      H2092   1.045       .  S
N2090      H2093   1.044       .  S
N2090      H2094   1.045       .  S
C2095      H2102   1.083       .  S
C2095      C2096   1.408       .  A
C2095      C2100   1.400       .  A
C2096      C2097   1.409       .  A
C2097      C2098   1.400       .  A
C2097      N2104   1.432       .  S
C2098      H2103   1.083       .  S
C2098      C2099   1.403       .  A
C2099      C2100   1.405       .  A
C2100      N2101   1.439       .  S
N2101      H2105   1.046       .  S
N2101      H2106   1.044       .  S
N2104      H2107   1.046       .  S
N2104      H2108   1.046       .  S
C2109      H2116   1.083       .  S
C2109      C2110   1.409       .  A
C2109      C2114   1.401       .  A
C2110      C2111   1.416       .  A
C2111      C2112   1.406       .  A
C2111      N2118   1.438       .  S
C2112      H2117   1.082       .  S
C2112      C2113   1.403       .  A
C2113      C2114   1.408       .  A
C2114      N2115   1.439       .  S
N2115      H2119   1.046       .  S
N2115      H2120   1.045       .  S
N2118      H2121   1.046       .  S
N2118      H2122   1.046       .  S
C2123      H2130   1.084       .  S
C2123      C2124   1.411       .  A
C2123      C2128   1.403       .  A
C2124      C2125   1.415   1_455  A
C2125      C4430   1.415       .  A
C2125      N4436   1.437       .  S
C2126      H2131   1.084       .  S
C2126      C4429   1.414       .  A
C2126      C4431   1.404       .  A
C2127      C4430   1.407   1_455  A
C2127      C2128   1.413       .  A
C2128      N2129   1.439       .  S
N2129      H2133   1.046       .  S
N2129      H2134   1.043       .  S
N2132      C4429   1.437       .  S
N2132      H2135   1.046       .  S
N2132      H2136   1.046       .  S
C2137      H2144   1.084       .  S
C2137      C2138   1.408       .  A
C2137      C2142   1.403       .  A
C2138      C2139   1.425       .  A
C2139      C2140   1.396       .  A
C2139      N2146   1.433   1_565  S
C2140      H2145   1.084   1_565  S
C2140      C2141   1.398       .  A
C2141      C2142   1.405       .  A
C2142      N2143   1.432       .  S
N2143      H2147   1.046       .  S
N2143      H2148   1.045       .  S
N2146      H2149   1.044       .  S
N2146      H2150   1.046   1_545  S
C2151      H2158   1.084       .  S
C2151      C2152   1.398       .  A
C2151      C2156   1.407       .  A
C2152      C2153   1.419       .  A
C2153      C2154   1.409       .  A
C2153      N2160   1.438       .  S
C2154      H2159   1.084       .  S
C2154      C2155   1.407       .  A
C2155      C3526   1.501       .  S
C2155      C2156   1.423       .  A
C2156      N2157   1.438       .  S
N2157      H2161   1.046       .  S
N2157      H2162   1.046       .  S
N2160      H2163   1.043       .  S
N2160      H2164   1.046       .  S
C2165      H2172   1.084       .  S
C2165      C2166   1.403       .  A
C2165      C2170   1.407       .  A
C2166      C2167   1.411       .  A
C2167      C2168   1.410       .  A
C2167      N2174   1.438       .  S
C2168      H2173   1.083       .  S
C2168      C2169   1.409       .  A
C2169      C2170   1.415       .  A
C2170      N2171   1.438       .  S
N2171      H2175   1.046       .  S
N2171      H2176   1.046       .  S
N2174      H2177   1.043       .  S
N2174      H2178   1.046       .  S
C2179      H2186   1.084       .  S
C2179      C2180   1.404       .  A
C2179      C2184   1.402       .  A
C2180      C2181   1.411       .  A
C2181      C2182   1.409       .  A
C2181      N2188   1.431       .  S
C2182      H2187   1.084       .  S
C2182      C2183   1.407       .  A
C2183      C2184   1.411       .  A
C2184      N2185   1.432       .  S
N2188      H2191   1.045       .  S
N2188      H2192   1.046       .  S
C2193      H2200   1.084       .  S
C2193      C2194   1.411       .  A
C2193      C2198   1.401       .  A
C2194      C2195   1.416       .  A
C2195      C2196   1.404       .  A
C2196      H2201   1.083       .  S
C2196      C2197   1.403       .  A
C2197      C2198   1.411       .  A
C2198      N2199   1.433       .  S
N2199      H2203   1.044       .  S
N2199      H2204   1.044       .  S
N2202      H2205   1.046       .  S
N2202      H2206   1.046       .  S
C2207      H2214   1.082       .  S
C2207      C2208   1.401       .  A
C2207      C2212   1.395       .  A
C2208      C2209   1.410       .  A
C2209      C2210   1.401       .  A
C2209      N2216   1.440       .  S
C2210      H2215   1.084       .  S
C2210      C2211   1.404       .  A
C2211      C2212   1.406       .  A
C2212      N2213   1.432       .  S
N2213      H2217   1.045       .  S
N2213      H2218   1.045       .  S
N2216      H2219   1.042       .  S
N2216      H2220   1.046       .  S
C2221      H2228   1.083       .  S
C2221      C2222   1.409       .  A
C2221      C2226   1.404       .  A
C2222      C2223   1.414       .  A
C2223      C2224   1.406       .  A
C2223      N2230   1.432       .  S
C2224      H2229   1.084       .  S
C2224      C2225   1.402       .  A
C2225      C2226   1.408       .  A
C2226      N2227   1.437       .  S
N2227      H2231   1.046       .  S
N2227      H2232   1.040       .  S
N2230      H2233   1.045       .  S
N2230      H2234   1.045       .  S
C2235      H2242   1.084       .  S
C2235      C2236   1.404       .  A
C2235      C2240   1.407       .  A
C2236      C2237   1.415       .  A
C2237      C2238   1.401       .  A
C2237      N2244   1.438       .  S
C2238      C2239   1.407       .  A
C2239      C2240   1.414       .  A
C2240      N2241   1.438       .  S
N2241      H2245   1.046       .  S
N2244      H2247   1.042       .  S
N2244      H2248   1.046       .  S
C2249      H2256   1.085       .  S
C2249      C2250   1.400       .  A
C2249      C2254   1.396       .  A
C2250      C2251   1.405   1_455  A
C2251      C2252   1.407   1_655  A
C2251      N4562   1.437       .  S
C2252      H2257   1.083   1_455  S
C2252      C2253   1.412       .  A
C2253      C2254   1.421       .  A
C2254      N2255   1.432       .  S
N2255      H2259   1.044       .  S
N2255      H2260   1.045       .  S
N2258      C4555   1.438       .  S
N2258      H2261   1.045       .  S
N2258      H2262   1.046       .  S
C2263      H2270   1.083       .  S
C2263      C2264   1.408       .  A
C2263      C2268   1.405       .  A
C2264      C2265   1.419       .  A
C2265      C2266   1.409       .  A
C2265      N2272   1.437       .  S
C2266      H2271   1.084       .  S
C2266      C2267   1.400       .  A
C2267      C2268   1.407       .  A
C2268      N2269   1.437       .  S
N2269      H2273   1.046       .  S
N2269      H2274   1.045       .  S
N2272      H2275   1.046       .  S
N2272      H2276   1.046       .  S
C2277      H2284   1.084       .  S
C2277      C2278   1.407       .  A
C2277      C2282   1.402       .  A
C2278      C3474   1.486       .  S
C2278      C2279   1.422       .  A
C2279      C2280   1.400       .  A
C2279      N4590   1.433       .  S
C2280      H2285   1.084       .  S
C2280      C2281   1.399       .  A
C2281      C2282   1.405       .  A
C2282      N2283   1.431       .  S
N2283      H2287   1.045       .  S
N2283      H2288   1.045       .  S
N2286      C4583   1.433       .  S
N2286      H2289   1.045       .  S
N2286      H2290   1.045       .  S
C2291      H2298   1.084       .  S
C2291      C2292   1.399       .  A
C2291      C2296   1.408       .  A
C2292      C2293   1.410       .  A
C2293      C2294   1.406       .  A
C2293      N2300   1.432       .  S
C2294      H2299   1.084       .  S
C2294      C2295   1.406       .  A
C2295      C2296   1.422       .  A
C2296      N2297   1.438       .  S
N2297      H2301   1.046       .  S
N2297      H2302   1.046       .  S
N2300      H2303   1.046       .  S
N2300      H2304   1.046       .  S
O2305     Mg2307   2.160       .  S
O2305     Mg2313   2.172       .  S
O2305      C2340   1.234       .  S
C2306      O2319   1.234       .  S
C2306      O2343   1.269       .  A
C2306      H2345   1.081       .  S
Mg2307     O2336   2.161       .  S
Mg2307     O2351   2.276       .  S
Mg2307     O2347   2.262       .  S
Mg2307     O2318   2.300       .  S
O2308     Mg2350   2.159       .  S
O2308     Mg2333   2.144       .  S
O2308      C2329   1.233       .  S
O2309      C2340   1.270       .  A
O2309     Mg2333   2.304       .  S
C2310      O2312   1.269       .  A
C2310      O2324   1.277       .  A
C2310      C3416   1.493       .  S
O2311      C2339   1.267       .  A
O2311     Mg2313   2.292       .  S
O2312     Mg2344   2.252       .  S
Mg2313     O2319   2.160       .  S
Mg2313     O2315   2.306       .  S
C2314      O2352   1.270       .  A
C2314      O2320   1.267       .  A
C2314      C2866   1.449       .  S
O2315      C2322   1.275       .  A
H2316      C2329   1.081       .  S
C2317      O2331   1.236       .  S
C2317      O2332   1.271       .  A
C2317      H2342   1.081       .  S
O2318      C2341   1.268       .  A
O2319     Mg2333   2.154       .  S
O2320     Mg2350   2.270       .  S
C2321      O2334   1.269       .  A
C2321      O2326   1.275       .  A
C2321      C3447   1.492       .  S
C2322      O2349   1.271       .  A
Mg2323     O2330   2.140       .  S
Mg2323     O2331   2.177       .  S
Mg2323     O2324   2.315       .  S
Mg2323     O2325   2.297       .  S
Mg2323     O2352   2.250       .  S
O2325      C2329   1.267       .  A
O2326     Mg2333   2.313       .  S
O2327      C2346   1.273       .  A
O2328      C2348   1.271       .  A
O2328     Mg2344   2.291       .  S
O2330     Mg2344   2.142       .  S
O2330      C2341   1.234       .  S
O2331     Mg2350   2.165       .  S
O2332     Mg2344   2.308       .  S
Mg2333     O2349   2.248       .  S
O2334     Mg2350   2.255       .  S
H2335      C2340   1.081       .  S
O2336     Mg2344   2.144       .  S
O2336      C2339   1.233       .  S
H2337      C2339   1.081       .  S
H2338      C2341   1.081       .  S
O2343     Mg2350   2.303       .  S
C2346      C2898   1.461       .  S
O2347      C2348   1.271       .  A
C2348      C3405   1.491       .  S
C2353      C3444   1.487       .  S
C2353      C2354   1.419       .  A
C2353      C2358   1.400       .  A
C2354      C3388   1.479       .  S
C2354      C2355   1.406       .  A
C2355      H2360   1.084       .  S
C2355      C2356   1.398       .  A
C2356      C3377   1.482       .  S
C2356      C2357   1.412       .  A
C2357      C3360   1.476       .  S
C2357      C2358   1.397       .  A
C2358      H2359   1.085       .  S
C2361      C3433   1.480       .  S
C2361      C2362   1.408       .  A
C2361      C2366   1.399       .  A
C2362      C3349   1.484       .  S
C2362      C2363   1.401       .  A
C2363      H2368   1.084       .  S
C2363      C2364   1.411       .  A
C2364      C3332   1.495       .  S
C2364      C2365   1.425       .  A
C2365      C3318   1.488       .  S
C2365      C2366   1.406       .  A
C2366      H2367   1.085       .  S
O2369     Mg2371   2.144       .  S
O2369     Mg2377   2.164       .  S
O2369      C2404   1.235       .  S
C2370      O2383   1.234       .  S
C2370      O2407   1.268       .  A
C2370      H2409   1.081       .  S
Mg2371     O2400   2.175       .  S
Mg2371     O3567   2.328       .  S
Mg2371     O2411   2.269       .  S
Mg2371     O2382   2.305       .  S
O2372     Mg2414   2.169       .  S
O2372     Mg2397   2.152       .  S
O2372      C2393   1.235       .  S
O2373      C2404   1.269       .  A
O2373     Mg2397   2.298       .  S
C2374      O2376   1.277       .  A
C2374      O2388   1.271       .  A
O2375      C2403   1.270       .  A
O2375     Mg2377   2.304       .  S
O2376     Mg2408   2.316       .  S
Mg2377     O2383   2.155       .  S
Mg2377     O3543   2.292       .  S
Mg2377     O2379   2.264       .  S
C2378      O2416   1.269       .  A
C2378      C2900   1.462       .  S
O2379      C2386   1.268       .  A
H2380      C2393   1.081       .  S
C2381      O2395   1.235       .  S
C2381      O2396   1.271       .  A
C2381      H2406   1.081       .  S
O2382      C2405   1.269       .  A
O2383     Mg2397   2.171       .  S
O2384     Mg2414   2.296       .  S
C2385      O2398   1.279       .  A
C2385      O2390   1.276       .  A
C2385      C3276   1.500       .  S
C2386      O2413   1.274       .  A
C2386      C3290   1.490       .  S
Mg2387     O2394   2.160       .  S
Mg2387     O2395   2.173       .  S
Mg2387     O2388   2.286       .  S
Mg2387     O2389   2.296       .  S
O2389      C2393   1.269       .  A
O2390     Mg2397   2.296       .  S
O2391      C2410   1.269       .  A
O2391     Mg3529   2.280   1_545  S
O2392      C2412   1.277       .  A
O2392     Mg2408   2.307       .  S
O2394     Mg2408   2.159       .  S
O2394      C2405   1.234       .  S
O2395     Mg2414   2.169       .  S
O2396     Mg2408   2.308       .  S
Mg2397     O2413   2.286       .  S
O2398     Mg2414   2.325       .  S
H2399      C2404   1.081       .  S
O2400     Mg2408   2.176       .  S
O2400      C2403   1.235       .  S
H2401      C2403   1.081       .  S
H2402      C2405   1.081       .  S
O2407     Mg2414   2.295       .  S
C2410      O2415   1.278       .  A
C2410      C2873   1.474       .  S
O2411      C2412   1.273       .  A
C2412      C4543   1.488       .  S
O2415     Mg3523   2.329   1_545  S
O2417     Mg2419   2.135       .  S
O2417     Mg2425   2.168       .  S
O2417      C2452   1.237       .  S
C2418      O2431   1.236       .  S
C2418      O2455   1.273       .  A
C2418      H2457   1.081       .  S
Mg2419     O2448   2.153       .  S
Mg2419     O2463   2.312       .  S
Mg2419     O2459   2.274       .  S
Mg2419     O2430   2.310       .  S
O2420     Mg2462   2.146       .  S
O2420     Mg2445   2.156       .  S
O2420      C2441   1.233       .  S
O2421      C2452   1.272       .  A
O2421     Mg2445   2.301       .  S
C2422      O2424   1.269       .  A
C2422      O2436   1.272       .  A
C2422      C4498   1.492       .  S
O2423      C2451   1.266       .  A
O2423     Mg2425   2.289       .  S
O2424     Mg2456   2.259       .  S
Mg2425     O2431   2.165       .  S
Mg2425     O2439   2.300       .  S
Mg2425     O2427   2.260       .  S
C2426      O2464   1.267       .  A
C2426      O3584   1.279       .  A
C2426      C2874   1.461       .  S
O2427      C2434   1.270       .  A
H2428      C2441   1.081       .  S
C2429      O2443   1.237       .  S
C2429      O2444   1.272       .  A
C2429      H2454   1.081       .  S
O2430      C2453   1.271       .  A
O2431     Mg2445   2.152       .  S
O2432      C3578   1.279       .  A
O2432     Mg2462   2.323       .  S
C2433      O2446   1.276       .  A
C2433      O2438   1.271       .  A
C2433      C3234   1.496       .  S
C2434      O2461   1.270       .  A
C2434      C3248   1.477       .  S
Mg2435     O2442   2.151       .  S
Mg2435     O2443   2.176       .  S
Mg2435     O2436   2.292       .  S
Mg2435     O2437   2.300       .  S
Mg2435     O3616   2.268       .  S
O2437      C2441   1.268       .  A
O2438     Mg2445   2.294       .  S
O2439      C2458   1.273       .  A
O2440      C2460   1.270       .  A
O2440     Mg2456   2.267       .  S
O2442     Mg2456   2.149       .  S
O2442      C2453   1.236       .  S
O2443     Mg2462   2.157       .  S
O2444     Mg2456   2.303       .  S
Mg2445     O2461   2.262       .  S
O2446     Mg2462   2.315       .  S
H2447      C2452   1.081       .  S
O2448     Mg2456   2.144       .  S
O2448      C2451   1.233       .  S
H2449      C2451   1.081       .  S
H2450      C2453   1.081       .  S
O2455     Mg2462   2.317       .  S
C2458      O2463   1.276       .  A
C2458      C2862   1.474       .  S
O2459      C2460   1.271       .  A
C2460      C3262   1.488       .  S
O2464     Mg3587   2.248   1_545  S
C2465      C3304   1.491       .  S
C2465      C2466   1.413       .  A
C2465      C2470   1.413       .  A
C2466      C3265   1.474       .  S
C2466      C2467   1.393       .  A
C2467      H2472   1.085       .  S
C2467      C2468   1.392       .  A
C2468      C3220   1.469       .  S
C2468      C2469   1.411       .  A
C2469      C3206   1.492       .  S
C2469      C2470   1.413       .  A
C2470      H2471   1.083       .  S
O2473     Mg2475   2.148   1_554  S
O2473     Mg3633   2.156       .  S
O2473      C2508   1.237       .  S
C2474      O2487   1.234       .  S
C2474      O2511   1.270       .  A
C2474      H2513   1.081       .  S
Mg2475     O3656   2.171   1_545  S
Mg2475     O3671   2.307   1_545  S
Mg2475     O3667   2.295   1_545  S
Mg2475     O2486   2.301       .  S
O2476     Mg3670   2.164   1_545  S
O2476     Mg2501   2.158       .  S
O2476      C2497   1.236       .  S
O2477      C2508   1.273       .  A
O2477     Mg2501   2.315       .  S
C2478      O2480   1.269       .  A
C2478      O2492   1.270       .  A
C2478      C3192   1.481       .  S
O2479      C2507   1.270   1_554  A
O2479     Mg2481   2.302       .  S
O2480     Mg2512   2.261       .  S
Mg2481     O3625   2.155       .  S
Mg2481     O2487   2.171       .  S
Mg2481     O2495   2.285       .  S
Mg2481     O3635   2.279       .  S
C2482      O2520   1.270   1_545  A
C2482      O2488   1.277   1_556  A
C2482      C3970   1.473       .  S
O2483      C2490   1.270       .  A
O2483     Mg3633   2.279       .  S
H2484      C2497   1.081       .  S
C2485      O2499   1.237       .  S
C2485      O2500   1.273       .  A
C2485      H2510   1.081   1_556  S
O2486      C2509   1.268       .  A
O2487     Mg3653   2.147       .  S
O2488     Mg3670   2.321   1_545  S
C2489      O2502   1.274       .  A
C2489      O2494   1.275       .  A
C2489      C3335   1.490       .  S
C2490      O2517   1.269       .  A
C2490      C3374   1.487       .  S
Mg2491     O2498   2.164       .  S
Mg2491     O3651   2.145       .  S
Mg2491     O3644   2.273       .  S
Mg2491     O2493   2.307   1_565  S
Mg2491     O2520   2.286       .  S
O2492     Mg3643   2.270       .  S
O2493      C2497   1.272   1_556  A
O2494     Mg2501   2.308       .  S
O2495      C2514   1.270       .  A
O2496      C2516   1.276       .  A
O2496     Mg2512   2.307       .  S
O2498     Mg3664   2.148       .  S
O2498      C2509   1.233   1_565  S
O2499     Mg3643   2.147       .  S
O2499     Mg2518   2.140   1_556  S
O2500     Mg2512   2.313       .  S
Mg2501     O3639   2.146   1_545  S
Mg2501     O2517   2.269       .  S
O2502     Mg3670   2.285   1_545  S
H2503      C2508   1.081   1_556  S
O2504     Mg3627   2.169       .  S
O2504     Mg2512   2.152       .  S
O2504      C2507   1.235       .  S
H2505      C2507   1.081       .  S
H2506      C2509   1.081       .  S
O2511     Mg2518   2.310       .  S
Mg2512     O3650   2.150       .  S
C2514      O2519   1.276   1_554  A
C2514      C2850   1.468       .  S
O2515      C2516   1.275       .  A
O2515     Mg3627   2.295       .  S
C2516      C3178   1.499       .  S
Mg2518     O3628   2.165       .  S
Mg2518     O3640   2.317       .  S
Mg2518     O3654   2.286       .  S
O2519     Mg3627   2.308       .  S
O2521     Mg2523   2.149   1_556  S
O2521     Mg2529   2.179       .  S
O2521      C2556   1.236       .  S
C2522      O2535   1.236       .  S
C2522      O2559   1.271       .  A
C2522      H2561   1.081       .  S
Mg2523     O2552   2.140       .  S
Mg2523     O2567   2.279       .  S
Mg2523     O2563   2.255       .  S
Mg2523     O2534   2.306       .  S
O2524     Mg2566   2.148       .  S
O2524     Mg2549   2.132       .  S
O2524      C2545   1.232       .  S
O2525      C2556   1.270       .  A
O2525     Mg2549   2.299       .  S
C2526      O2528   1.266       .  A
C2526      O2540   1.272       .  A
C2526      C3363   1.465       .  S
O2527      C2555   1.265   1_556  A
O2527     Mg2529   2.290       .  S
O2528     Mg2560   2.216       .  S
Mg2529     O2535   2.148       .  S
Mg2529     O2543   2.268       .  S
Mg2529     O2531   2.312       .  S
C2530      O2568   1.272   1_556  A
C2530      O2536   1.269       .  A
C2530      C2852   1.456       .  S
O2531      C2538   1.276       .  A
H2532      C2545   1.081       .  S
C2533      O2547   1.236       .  S
C2533      O2548   1.269       .  A
C2533      H2558   1.081   1_554  S
O2534      C2557   1.271       .  A
O2535     Mg2549   2.148       .  S
O2536     Mg2566   2.280       .  S
C2537      O2550   1.266       .  A
C2537      O2542   1.271       .  A
C2537      C3167   1.478       .  S
C2538      O2565   1.267       .  A
C2538      C3150   1.479       .  S
Mg2539     O2546   2.137       .  S
Mg2539     O2547   2.176       .  S
Mg2539     O2540   2.283       .  S
Mg2539     O2541   2.285       .  S
Mg2539     O2568   2.261       .  S
O2541      C2545   1.264   1_554  A
O2542     Mg2549   2.288       .  S
O2543      C2562   1.274       .  A
O2544      C2564   1.267       .  A
O2544     Mg2560   2.275       .  S
O2546     Mg2560   2.148       .  S
O2546      C2557   1.236       .  S
O2547     Mg2566   2.126   1_554  S
O2548     Mg2560   2.290       .  S
Mg2549     O2565   2.228       .  S
O2550     Mg2566   2.221       .  S
H2551      C2556   1.081       .  S
O2552     Mg2560   2.131       .  S
O2552      C2555   1.231       .  S
H2553      C2555   1.081       .  S
H2554      C2557   1.081       .  S
O2559     Mg2566   2.307       .  S
C2562      O2567   1.269   1_556  A
C2562      C2825   1.455   1_556  S
O2563      C2564   1.269       .  A
C2564      C3223   1.482       .  S
O2569     Mg2571   2.180   1_556  S
O2569      C2604   1.234       .  S
C2570      O2583   1.233       .  S
C2570      O2607   1.268       .  A
C2570      H2609   1.081       .  S
Mg2571     O2582   2.287       .  S
O2572     Mg2597   2.162       .  S
O2572      C2593   1.235       .  S
O2573      C2604   1.269       .  A
O2573     Mg2597   2.306       .  S
C2574      O2576   1.277       .  A
C2574      O2588   1.279       .  A
C2574      C3209   1.504       .  S
O2575      C2603   1.269   1_556  A
O2575     Mg2577   2.296       .  S
O2576     Mg2608   2.287       .  S
Mg2577     O2583   2.152       .  S
Mg2577     O2591   2.276       .  S
C2578      O2616   1.273   1_556  A
C2578      O2584   1.268       .  A
C2578      C2826   1.462       .  S
O2579      C2586   1.281       .  A
H2580      C2593   1.081       .  S
C2581      O2595   1.234       .  S
C2581      O2596   1.269       .  A
C2581      H2606   1.081   1_554  S
O2582      C2605   1.266       .  A
C2585      O2598   1.270       .  A
C2585      O2590   1.277       .  A
C2585      C3122   1.493       .  S
C2586      O2613   1.275       .  A
C2586      C3136   1.509       .  S
Mg2587     O2594   2.146       .  S
Mg2587     O2589   2.296       .  S
Mg2587     O2616   2.275       .  S
O2589      C2593   1.269   1_554  A
O2590     Mg2597   2.324       .  S
O2591      C2610   1.274   1_556  A
O2592      C2612   1.278       .  A
O2592     Mg2608   2.323       .  S
O2594      C2605   1.232       .  S
O2595     Mg2614   2.171   1_554  S
O2596     Mg2608   2.304       .  S
Mg2597     O2613   2.287       .  S
H2599      C2604   1.081   1_554  S
O2600     Mg2608   2.161       .  S
O2600      C2603   1.235       .  S
H2601      C2603   1.081       .  S
H2602      C2605   1.081       .  S
O2607     Mg2614   2.297       .  S
C2610      O2615   1.268       .  A
O2611      C2612   1.272       .  A
C2612      C3321   1.494       .  S
O2617     Mg2619   2.160       .  S
O2617     Mg2625   2.163       .  S
O2617      C2652   1.236       .  S
C2618      O2631   1.237       .  S
C2618      O2655   1.273       .  A
C2618      H2657   1.081       .  S
Mg2619     O2648   2.146       .  S
Mg2619     O2663   2.304   1_545  S
Mg2619     O2659   2.269       .  S
Mg2619     O2630   2.310       .  S
O2620     Mg2662   2.137       .  S
O2620     Mg2645   2.133       .  S
O2620      C2641   1.233       .  S
O2621      C2652   1.270       .  A
O2621     Mg2645   2.301       .  S
C2622      O2624   1.267       .  A
C2622      O2636   1.276       .  A
C2622      C3108   1.489       .  S
O2623      C2651   1.267       .  A
O2623     Mg2625   2.302       .  S
O2624     Mg2656   2.231       .  S
Mg2625     O2631   2.144       .  S
Mg2625     O3791   2.255   1_545  S
Mg2625     O2627   2.329   1_545  S
C2626      O2664   1.274       .  A
C2626      O2632   1.271       .  A
C2626      C2910   1.465       .  S
O2627      C2634   1.277   1_565  A
H2628      C2641   1.081       .  S
C2629      O2643   1.235       .  S
C2629      O2644   1.270       .  A
C2629      H2654   1.081       .  S
O2630      C2653   1.272       .  A
O2631     Mg2645   2.145       .  S
O2632     Mg2662   2.303       .  S
C2633      O2646   1.266       .  A
C2633      O2638   1.268       .  A
C2633      C3080   1.482       .  S
C2634      O2661   1.265       .  A
C2634      C4218   1.487   1_545  S
Mg2635     O2642   2.164       .  S
Mg2635     O2643   2.154       .  S
Mg2635     O2636   2.304       .  S
Mg2635     O2637   2.296       .  S
Mg2635     O2664   2.279       .  S
O2637      C2641   1.267       .  A
O2638     Mg2645   2.272       .  S
O2639      C2658   1.274       .  A
O2639     Mg3777   2.266       .  S
O2640      C2660   1.272       .  A
O2640     Mg2656   2.292       .  S
O2642     Mg2656   2.150       .  S
O2642      C2653   1.236       .  S
O2643     Mg2662   2.143       .  S
O2644     Mg2656   2.302       .  S
Mg2645     O2661   2.220       .  S
O2646     Mg2662   2.242       .  S
H2647      C2652   1.081   1_565  S
O2648     Mg2656   2.141       .  S
O2648      C2651   1.232       .  S
H2649      C2651   1.081       .  S
H2650      C2653   1.081       .  S
O2655     Mg2662   2.314       .  S
C2658      O3815   1.272       .  A
C2658      C2922   1.458       .  S
O2659      C2660   1.270       .  A
C2660      C3094   1.492       .  S
O2663      C3810   1.272       .  A
C2665      C3164   1.469       .  S
C2665      C2666   1.414       .  A
C2665      C2670   1.391       .  A
C2666      C3139   1.495       .  S
C2666      C2667   1.416       .  A
C2667      H2672   1.083       .  S
C2667      C2668   1.414       .  A
C2668      C3055   1.492       .  S
C2668      C2669   1.410       .  A
C2669      C3083   1.468       .  S
C2669      C2670   1.388       .  A
C2670      H2671   1.086       .  S
C2673      C3125   1.483       .  S
C2673      C2674   1.419       .  A
C2673      C2678   1.403       .  A
C2674      C3181   1.490       .  S
C2674      C2675   1.409       .  A
C2675      H2680   1.084       .  S
C2675      C2676   1.403       .  A
C2676      C3069   1.485       .  S
C2676      C2677   1.410       .  A
C2677      C3038   1.479       .  S
C2677      C2678   1.398       .  A
C2678      H2679   1.085       .  S
O2681     Mg2683   2.166       .  S
O2681     Mg2689   2.159       .  S
O2681      C2716   1.233       .  S
C2682      O2695   1.237       .  S
C2682      O2719   1.272       .  A
C2682      H2721   1.081       .  S
Mg2683     O2712   2.156       .  S
Mg2683     O2727   2.279   1_655  S
Mg2683     O2723   2.251       .  S
Mg2683     O2694   2.294       .  S
O2684     Mg2726   2.152       .  S
O2684     Mg2709   2.161       .  S
O2684      C2705   1.235       .  S
O2685      C2716   1.268       .  A
O2685     Mg2709   2.299       .  S
C2686      O2688   1.272       .  A
C2686      O2700   1.279       .  A
C2686      C3013   1.492       .  S
O2687      C2715   1.269       .  A
O2687     Mg2689   2.306       .  S
O2688     Mg2720   2.258       .  S
Mg2689     O2695   2.160       .  S
Mg2689     O2691   2.337       .  S
C2690      O2728   1.273       .  A
C2690      O2696   1.270       .  A
C2690      C2921   1.463       .  S
O2691      C2698   1.280       .  A
H2692      C2705   1.081       .  S
C2693      O2707   1.233       .  S
C2693      O2708   1.268       .  A
C2693      H2718   1.081       .  S
O2694      C2717   1.269       .  A
O2695     Mg2709   2.169       .  S
O2696     Mg3878   2.303       .  S
C2697      O2710   1.264       .  A
C2697      O2702   1.275       .  A
C2697      C4151   1.487       .  S
C2698      O2725   1.272       .  A
Mg2699     O2706   2.140       .  S
Mg2699     O2707   2.144       .  S
Mg2699     O2700   2.322       .  S
Mg2699     O2701   2.309       .  S
Mg2699     O3880   2.266   1_545  S
O2701      C2705   1.271       .  A
O2702     Mg2709   2.308       .  S
O2703      C2722   1.272       .  A
O2704      C2724   1.274       .  A
O2704     Mg2720   2.297       .  S
O2706     Mg2720   2.160       .  S
O2706      C2717   1.235       .  S
O2707     Mg2726   2.147       .  S
O2708     Mg2720   2.296       .  S
Mg2709     O2725   2.270       .  S
O2710     Mg2726   2.227       .  S
H2711      C2716   1.081       .  S
O2712     Mg2720   2.151       .  S
O2712      C2715   1.234       .  S
H2713      C2715   1.081       .  S
H2714      C2717   1.081       .  S
O2719     Mg2726   2.304       .  S
C2722      C2948   1.458       .  S
O2723      C2724   1.268       .  A
C2724      C3024   1.491       .  S
Mg2726     O3848   2.300   1_545  S
O2728     Mg3851   2.274       .  S
O2729     Mg2731   2.141       .  S
O2729     Mg2737   2.127       .  S
O2729      C2764   1.237       .  S
C2730      O2743   1.234       .  S
C2730      O2767   1.270       .  A
C2730      H2769   1.081       .  S
Mg2731     O2760   2.155       .  S
Mg2731     O2775   2.323       .  S
Mg2731     O2771   2.279       .  S
Mg2731     O2742   2.311       .  S
O2732     Mg2774   2.170       .  S
O2732     Mg2757   2.159       .  S
O2732      C2753   1.236       .  S
O2733      C2764   1.273       .  A
O2733     Mg2757   2.319       .  S
C2734      O2736   1.267       .  A
C2734      O2748   1.270       .  A
O2735      C2763   1.273       .  A
O2735     Mg2737   2.314       .  S
O2736     Mg2768   2.251       .  S
Mg2737     O2743   2.163       .  S
Mg2737     O2751   2.270       .  S
Mg2737     O2739   2.272       .  S
C2738      O2776   1.270       .  A
C2738      C2946   1.472       .  S
O2739      C2746   1.265       .  A
H2740      C2753   1.081       .  S
C2741      O2755   1.236       .  S
C2741      O2756   1.271       .  A
C2741      H2766   1.081   1_655  S
O2742      C2765   1.271       .  A
O2743     Mg2757   2.148       .  S
O2744     Mg2774   2.330   1_455  S
C2745      O2758   1.276       .  A
C2745      O2750   1.271       .  A
C2745      C2982   1.493       .  S
C2746      O2773   1.270       .  A
C2746      C2968   1.490       .  S
Mg2747     O2754   2.174       .  S
Mg2747     O2755   2.136       .  S
Mg2747     O2748   2.277       .  S
Mg2747     O2749   2.313       .  S
O2749      C2753   1.272       .  A
O2750     Mg2757   2.276       .  S
O2751      C2770   1.266       .  A
O2752      C2772   1.273       .  A
O2752     Mg2768   2.294       .  S
O2754     Mg2768   2.158       .  S
O2754      C2765   1.235       .  S
O2755     Mg2774   2.148       .  S
O2756     Mg2768   2.310       .  S
Mg2757     O2773   2.292       .  S
O2758     Mg2774   2.300       .  S
H2759      C2764   1.081       .  S
O2760     Mg2768   2.147       .  S
O2760      C2763   1.237       .  S
H2761      C2763   1.081       .  S
H2762      C2765   1.081       .  S
O2767     Mg2774   2.306       .  S
C2770      O2775   1.276       .  A
C2770      C2914   1.469       .  S
O2771      C2772   1.272       .  A
C2772      C2954   1.494       .  S
C2777      C3153   1.482       .  S
C2777      C2778   1.408       .  A
C2777      C2782   1.400       .  A
C2778      C3195   1.471       .  S
C2778      C2779   1.394       .  A
C2779      H2784   1.085       .  S
C2779      C2780   1.401       .  A
C2780      C2996   1.480       .  S
C2780      C2781   1.418       .  A
C2781      C2957   1.484       .  S
C2781      C2782   1.406       .  A
C2782      H2783   1.084       .  S
C2785      C3402   1.480       .  S
C2785      C2786   1.417       .  A
C2785      C2790   1.399       .  A
C2786      C3279   1.492       .  S
C2786      C2787   1.408       .  A
C2787      H2792   1.084       .  S
C2788      C2985   1.486       .  S
C2788      C2789   1.415       .  A
C2789      C3027   1.483       .  S
C2790      H2791   1.085       .  S
C2793      C3419   1.488       .  S
C2793      C2794   1.413       .  A
C2793      C2798   1.405       .  A
C2794      C3251   1.473       .  S
C2794      C2795   1.400       .  A
C2795      H2800   1.084       .  S
C2795      C2796   1.396       .  A
C2796      C2971   1.480       .  S
C2796      C2797   1.410       .  A
C2797      C3111   1.477       .  S
C2797      C2798   1.406       .  A
C2798      H2799   1.084       .  S
C2801      C3293   1.485       .  S
C2801      C2802   1.417       .  A
C2801      C2806   1.404       .  A
C2802      C3237   1.491       .  S
C2802      C2803   1.407       .  A
C2803      H2808   1.084       .  S
C2803      C3956   1.409       .  A
C2804      C3010   1.482       .  S
C2804      C3955   1.407       .  A
C2804      C2805   1.413       .  A
C2805      C3097   1.482       .  S
C2805      C3958   1.398   1_545  A
C2806      H2807   1.084       .  S
C2806      C3957   1.400       .  A
O2809     Mg3963   2.137       .  S
O2809     Mg2817   2.168   1_556  S
O2809      C2844   1.232       .  S
C2810      O2823   1.235       .  S
C2810      O2847   1.270       .  A
C2810      H2849   1.081       .  S
Mg2811     O3961   2.141   1_545  S
Mg2811     O2840   2.162   1_556  S
Mg2811     O2855   2.322   1_556  S
Mg2811     O2851   2.254       .  S
Mg2811     O2822   2.305       .  S
O2812     Mg2854   2.167   1_556  S
O2812     Mg2837   2.169       .  S
O2812      C2833   1.233       .  S
O2813     Mg2837   2.287   1_455  S
C2814      O2816   1.274       .  A
O2815      C3995   1.268       .  A
O2815     Mg2817   2.302       .  S
O2816     Mg2848   2.281       .  S
Mg2817     O2831   2.260       .  S
Mg2817     O2819   2.269       .  S
C2818      O4008   1.269       .  A
C2818      O2824   1.277       .  A
C2818      C3634   1.474       .  S
O2819      C2826   1.267   1_554  A
H2820      C2833   1.081       .  S
C2821      O2835   1.233       .  S
C2821      H2846   1.081       .  S
O2822      C2845   1.271       .  A
O2823     Mg2837   2.189   1_554  S
O2824     Mg2854   2.327   1_556  S
C2825      O2838   1.271       .  A
C2825      O2830   1.270   1_554  A
Mg2827     O2835   2.162   1_556  S
Mg2827     O2828   2.260       .  S
Mg2827     O2829   2.302   1_545  S
Mg2827     O2856   2.275       .  S
O2829      C3985   1.268       .  A
O2830     Mg2837   2.280       .  S
O2831      C2850   1.268       .  A
O2832      C2852   1.272   1_554  A
O2832     Mg2848   2.291       .  S
C2833      O3981   1.268       .  A
O2834     Mg2848   2.187   1_556  S
O2834      C2845   1.235       .  S
O2835     Mg4006   2.140   1_545  S
O2836     Mg2848   2.287       .  S
Mg2837     O2853   2.275       .  S
O2838     Mg2854   2.255       .  S
H2839      C2844   1.081       .  S
O2840     Mg2848   2.170       .  S
O2840      C2843   1.233       .  S
H2841      C2843   1.081       .  S
H2842      C2845   1.081       .  S
C2843      O3967   1.268       .  A
O2847     Mg2854   2.303       .  S
C2850      O4007   1.278       .  A
O2851      C2852   1.270       .  A
Mg2854     O3987   2.139       .  S
O2855      C4002   1.277   1_545  A
O2856      C3970   1.270       .  A
O2857     Mg2859   2.164       .  S
O2857     Mg2865   2.175       .  S
O2857      C2892   1.234       .  S
C2858      O2871   1.234       .  S
C2858      O2895   1.269       .  A
C2858      H2897   1.081       .  S
Mg2859     O2888   2.183       .  S
Mg2859     O2903   2.252       .  S
Mg2859     O2899   2.278       .  S
Mg2859     O2870   2.286       .  S
O2860     Mg2902   2.162       .  S
O2860     Mg2885   2.149       .  S
O2860      C2881   1.236       .  S
O2861      C2892   1.269       .  A
O2861     Mg2885   2.303       .  S
C2862      O2864   1.273       .  A
C2862      O2876   1.276       .  A
O2863      C2891   1.267       .  A
O2863     Mg2865   2.288       .  S
O2864     Mg2896   2.296       .  S
Mg2865     O2871   2.167       .  S
Mg2865     O2879   2.301       .  S
Mg2865     O2867   2.307       .  S
C2866      O2904   1.269       .  A
C2866      O2872   1.267       .  A
O2867      C2874   1.277       .  A
H2868      C2881   1.081       .  S
C2869      O2883   1.234       .  S
C2869      O2884   1.270       .  A
C2869      H2894   1.081       .  S
O2870      C2893   1.266       .  A
O2871     Mg2885   2.166       .  S
O2872     Mg2902   2.261       .  S
C2873      O2886   1.270       .  A
C2873      O2878   1.274       .  A
C2874      O2901   1.270       .  A
Mg2875     O2882   2.138       .  S
Mg2875     O2883   2.167       .  S
Mg2875     O2876   2.314       .  S
Mg2875     O2877   2.309       .  S
Mg2875     O2904   2.256       .  S
O2877      C2881   1.271       .  A
O2878     Mg2885   2.305       .  S
O2879      C2898   1.276       .  A
O2880      C2900   1.274       .  A
O2880     Mg2896   2.285       .  S
O2882     Mg2896   2.165       .  S
O2882      C2893   1.233       .  S
O2883     Mg2902   2.178       .  S
O2884     Mg2896   2.307       .  S
Mg2885     O2901   2.263       .  S
O2886     Mg2902   2.295       .  S
H2887      C2892   1.081       .  S
O2888     Mg2896   2.140       .  S
O2888      C2891   1.234       .  S
H2889      C2891   1.081       .  S
H2890      C2893   1.081       .  S
O2895     Mg2902   2.303       .  S
C2898      O2903   1.266       .  A
O2899      C2900   1.270       .  A
O2905     Mg2907   2.144       .  S
O2905     Mg2913   2.167       .  S
O2905      C2940   1.232       .  S
C2906      O2919   1.234       .  S
C2906      O2943   1.268       .  A
C2906      H2945   1.081       .  S
Mg2907     O2936   2.180       .  S
Mg2907     O2951   2.284       .  S
Mg2907     O2947   2.243       .  S
Mg2907     O2918   2.293       .  S
O2908     Mg2950   2.175       .  S
O2908     Mg2933   2.145       .  S
O2908      C2929   1.232       .  S
O2909      C2940   1.266       .  A
O2909     Mg2933   2.291       .  S
C2910      O2912   1.273       .  A
C2910      O2924   1.274       .  A
O2911      C2939   1.267       .  A
O2911     Mg2913   2.295       .  S
O2912     Mg2944   2.277       .  S
Mg2913     O2919   2.170       .  S
Mg2913     O2927   2.302       .  S
Mg2913     O2915   2.285       .  S
C2914      O2952   1.276       .  A
C2914      O2920   1.271       .  A
O2915      C2922   1.273       .  A
H2916      C2929   1.081       .  S
C2917      O2931   1.232       .  S
C2917      O2932   1.267       .  A
C2917      H2942   1.081       .  S
O2918      C2941   1.268       .  A
O2919     Mg2933   2.194       .  S
O2920     Mg2950   2.282       .  S
C2921      O2934   1.270       .  A
C2921      O2926   1.272       .  A
C2922      O2949   1.271       .  A
Mg2923     O2930   2.168       .  S
Mg2923     O2931   2.175       .  S
Mg2923     O2924   2.292       .  S
Mg2923     O2925   2.290       .  S
Mg2923     O2952   2.295       .  S
O2925      C2929   1.266       .  A
O2926     Mg2933   2.286       .  S
O2927      C2946   1.276       .  A
O2928      C2948   1.274       .  A
O2928     Mg2944   2.294       .  S
O2930     Mg2944   2.192       .  S
O2930      C2941   1.233       .  S
O2931     Mg2950   2.154       .  S
O2932     Mg2944   2.294       .  S
Mg2933     O2949   2.260       .  S
O2934     Mg2950   2.271       .  S
H2935      C2940   1.081       .  S
O2936     Mg2944   2.152       .  S
O2936      C2939   1.232       .  S
H2937      C2939   1.081       .  S
H2938      C2941   1.081       .  S
O2943     Mg2950   2.295       .  S
C2946      O2951   1.270       .  A
O2947      C2948   1.267       .  A
C2953      H2960   1.083       .  S
C2953      C2954   1.409       .  A
C2953      C2958   1.405       .  A
C2954      C2955   1.418       .  A
C2955      C2956   1.409       .  A
C2955      N2962   1.438       .  S
C2956      H2961   1.084       .  S
C2956      C2957   1.402       .  A
C2957      C2958   1.409       .  A
C2958      N2959   1.439       .  S
N2959      H2963   1.046       .  S
N2959      H2964   1.044       .  S
N2962      H2965   1.046       .  S
N2962      H2966   1.046       .  S
C2967      H2974   1.084       .  S
C2967      C2968   1.408       .  A
C2967      C2972   1.406       .  A
C2968      C2969   1.424       .  A
C2969      C2970   1.394       .  A
C2969      N2976   1.431       .  S
C2970      H2975   1.084       .  S
C2970      C2971   1.394       .  A
C2971      C2972   1.407       .  A
C2972      N2973   1.432       .  S
N2973      H2977   1.046       .  S
N2973      H2978   1.045       .  S
N2976      H2979   1.045       .  S
N2976      H2980   1.045       .  S
C2981      H2988   1.084       .  S
C2981      C2982   1.407   1_455  A
C2981      C2986   1.407       .  A
C2982      C2983   1.417       .  A
C2983      C2984   1.401       .  A
C2983      N2990   1.433       .  S
C2984      H2989   1.084       .  S
C2984      C2985   1.399       .  A
C2985      C2986   1.419   1_655  A
C2986      N2987   1.438       .  S
N2987      H2991   1.045       .  S
N2987      H2992   1.043       .  S
N2990      H2993   1.046       .  S
N2990      H2994   1.046       .  S
C2995      H3002   1.084       .  S
C2995      C2996   1.400       .  A
C2995      C3000   1.398       .  A
C2996      C2997   1.408       .  A
C2997      C2998   1.405       .  A
C2997      N3004   1.437       .  S
C2998      H3003   1.084       .  S
C2998      C2999   1.409       .  A
C2999      C3849   1.486       .  S
C2999      C3000   1.420       .  A
C3000      N4153   1.433       .  S
N3001      C4152   1.433       .  S
N3001      H4157   1.044       .  S
N3001      H3006   1.045   1_565  S
N3004      H3007   1.046       .  S
N3004      H3008   1.046       .  S
H3005      N4153   1.044       .  S
C3009      H3016   1.083       .  S
C3009      C3010   1.400       .  A
C3009      C3014   1.406       .  A
C3010      C3011   1.408       .  A
C3011      C3012   1.406       .  A
C3011      N3018   1.438   1_545  S
C3012      H3017   1.083   1_545  S
C3012      C3013   1.408       .  A
C3013      C3014   1.416       .  A
C3014      N3015   1.432       .  S
N3015      H3019   1.046       .  S
N3015      H3020   1.046       .  S
N3018      H4173   1.044       .  S
N3018      H4174   1.046       .  S
H3021      N4170   1.043       .  S
H3022      N4170   1.045       .  S
C3023      H3030   1.084       .  S
C3023      C3024   1.409       .  A
C3023      C3028   1.400       .  A
C3024      C3025   1.420       .  A
C3025      C3026   1.401   1_655  A
C3025      N3032   1.433   1_655  S
C3026      H3031   1.084       .  S
C3026      C3027   1.403   1_455  A
C3027      C3028   1.414       .  A
C3028      N3029   1.439       .  S
N3029      H3033   1.046       .  S
N3029      H3034   1.042       .  S
N3032      H3035   1.046       .  S
N3032      H3036   1.044       .  S
C3037      H3044   1.083       .  S
C3037      C3038   1.403       .  A
C3037      C3042   1.405       .  A
C3038      C3039   1.406       .  A
C3039      C3040   1.402       .  A
C3039      N3046   1.439       .  S
C3040      C3041   1.408       .  A
C3041      C3042   1.411       .  A
C3042      N3043   1.437       .  S
N3043      H3047   1.046       .  S
N3043      H3048   1.046       .  S
N3046      H3049   1.043       .  S
C3051      H3058   1.084       .  S
C3051      C3052   1.411       .  A
C3051      C3056   1.410       .  A
C3053      N3060   1.438       .  S
C3054      H3059   1.083       .  S
C3054      C3055   1.402       .  A
C3055      C3056   1.417       .  A
C3056      N3057   1.438       .  S
N3057      H3061   1.046       .  S
N3057      H3062   1.043       .  S
N3060      H3063   1.045   1_455  S
N3060      H3064   1.046       .  S
C3065      H3072   1.084       .  S
C3065      C3066   1.406       .  A
C3065      C3070   1.403       .  A
C3066      C3786   1.492       .  S
C3066      C4219   1.421       .  A
C3067      C4218   1.416       .  A
C3067      C4220   1.404       .  A
C3067      N3074   1.438   1_565  S
C3068      H3073   1.084       .  S
C3068      C4219   1.405       .  A
C3068      C3069   1.399       .  A
C3069      C3070   1.416       .  A
C3070      N3071   1.438       .  S
N3071      H3075   1.045       .  S
N3071      H3076   1.043       .  S
N3074      H3077   1.046       .  S
N3074      H3078   1.046   1_545  S
C3079      H3086   1.083       .  S
C3079      C3080   1.410       .  A
C3079      C3084   1.400       .  A
C3080      C3081   1.416       .  A
C3081      C3082   1.401       .  A
C3081      N3088   1.438       .  S
C3082      H3087   1.084       .  S
C3082      C3083   1.398       .  A
C3083      C3084   1.404       .  A
C3084      N3085   1.438       .  S
N3085      H3089   1.046       .  S
N3085      H3090   1.044       .  S
N3088      H3091   1.046       .  S
N3088      H3092   1.046       .  S
C3093      H3100   1.084       .  S
C3093      C3094   1.409       .  A
C3093      C3098   1.401       .  A
C3094      C3095   1.414   1_545  A
C3095      C3096   1.404       .  A
C3095      N3102   1.432       .  S
C3096      H3101   1.084       .  S
C3096      C3097   1.401   1_565  A
C3097      C3098   1.414       .  A
C3098      N3099   1.439       .  S
N3099      H3103   1.046       .  S
N3099      H3104   1.043       .  S
N3102      H3105   1.046       .  S
N3102      H3106   1.046       .  S
C3107      H3114   1.084       .  S
C3107      C3108   1.407       .  A
C3107      C3112   1.399       .  A
C3108      C3109   1.420       .  A
C3109      C3110   1.405       .  A
C3109      N3116   1.438       .  S
C3110      H3115   1.084       .  S
C3110      C3111   1.398       .  A
C3111      C3112   1.414       .  A
C3112      N3113   1.439       .  S
N3113      H3117   1.046       .  S
N3113      H3118   1.043       .  S
N3116      H3119   1.046       .  S
N3116      H3120   1.046       .  S
C3121      H3128   1.084       .  S
C3121      C3122   1.409       .  A
C3121      C3126   1.405       .  A
C3122      C3123   1.423       .  A
C3123      C3124   1.401       .  A
C3124      H3129   1.084       .  S
C3124      C3125   1.400       .  A
C3125      C3126   1.406       .  A
C3126      N3127   1.432       .  S
N3127      H3131   1.046       .  S
N3127      H3132   1.045       .  S
N3130      H3133   1.045       .  S
N3130      H3134   1.045       .  S
C3135      H3142   1.083       .  S
C3135      C3136   1.411       .  A
C3135      C3140   1.407       .  A
C3136      C3137   1.422       .  A
C3137      C3138   1.412       .  A
C3137      N3144   1.437       .  S
C3138      H3143   1.084       .  S
C3138      C3139   1.402       .  A
C3139      C3140   1.417       .  A
C3140      N3141   1.438       .  S
N3141      H3145   1.045       .  S
N3141      H3146   1.043       .  S
N3144      H3147   1.045       .  S
N3144      H3148   1.046       .  S
C3149      H3156   1.084       .  S
C3149      C3150   1.405       .  A
C3149      C3154   1.402       .  A
C3150      C3151   1.410       .  A
C3151      C3152   1.399       .  A
C3151      N3158   1.432       .  S
C3152      H3157   1.084       .  S
C3152      C3153   1.401       .  A
C3153      C3154   1.418       .  A
C3154      N3155   1.439       .  S
N3155      H3159   1.045       .  S
N3155      H3160   1.042       .  S
N3158      H3161   1.044       .  S
N3158      H3162   1.046       .  S
C3163      H3170   1.084       .  S
C3163      C3164   1.396       .  A
C3163      C3168   1.400       .  A
C3164      C3165   1.408       .  A
C3165      C3166   1.402       .  A
C3165      N3172   1.439       .  S
C3166      H3171   1.084       .  S
C3166      C3167   1.407       .  A
C3167      C3168   1.417       .  A
C3168      N3169   1.437       .  S
N3169      H3173   1.046       .  S
N3169      H3174   1.045       .  S
N3172      H3175   1.045       .  S
N3172      H3176   1.046       .  S
C3177      H3184   1.084       .  S
C3177      C3178   1.409       .  A
C3177      C3182   1.403       .  A
C3178      C3179   1.419       .  A
C3179      C3180   1.411       .  A
C3179      N3186   1.438       .  S
C3180      H3185   1.084       .  S
C3180      C3181   1.404       .  A
C3181      C3182   1.416       .  A
C3182      N3183   1.438       .  S
N3183      H3187   1.045       .  S
N3183      H3188   1.043       .  S
N3186      H3189   1.046       .  S
N3186      H3190   1.046       .  S
C3191      H3198   1.084       .  S
C3191      C3192   1.409       .  A
C3191      C3196   1.396       .  A
C3192      C3193   1.414       .  A
C3193      C3194   1.402       .  A
C3193      N3200   1.432       .  S
C3194      H3199   1.084       .  S
C3194      C3195   1.400       .  A
C3195      C3196   1.400       .  A
C3196      N3197   1.432       .  S
N3197      H4353   1.045       .  S
N3197      H3202   1.045       .  S
N3200      H3203   1.046       .  S
N3200      H3204   1.046       .  S
H3201      N4349   1.045       .  S
C3205      H3212   1.083       .  S
C3205      C3206   1.402       .  A
C3205      C3210   1.413       .  A
C3206      C3207   1.411       .  A
C3207      C3208   1.402       .  A
C3207      N3214   1.433       .  S
C3208      H3213   1.083       .  S
C3208      C3209   1.410       .  A
C3209      C3210   1.422       .  A
C3210      N3211   1.438       .  S
N3211      H3215   1.046       .  S
N3211      H3216   1.046       .  S
N3214      H3217   1.045       .  S
N3214      H3218   1.045       .  S
C3219      H3226   1.084       .  S
C3219      C3220   1.395       .  A
C3219      C3224   1.402       .  A
C3220      C3221   1.406       .  A
C3221      C3222   1.402       .  A
C3221      N3228   1.438       .  S
C3222      H3227   1.083       .  S
C3222      C3223   1.406       .  A
C3223      C3224   1.421       .  A
C3224      N3225   1.438       .  S
N3225      H3229   1.046       .  S
N3225      H3230   1.046       .  S
N3228      H3231   1.045       .  S
N3228      H3232   1.046       .  S
C3233      H3240   1.083       .  S
C3233      C3234   1.408       .  A
C3233      C3238   1.412       .  A
C3234      C3235   1.425       .  A
C3235      C3236   1.397       .  A
C3235      N3242   1.432       .  S
C3236      H3241   1.084       .  S
C3236      C3237   1.398       .  A
C3237      C3238   1.409       .  A
C3238      N3239   1.431       .  S
N3239      H3243   1.046       .  S
N3239      H3244   1.045       .  S
N3242      H3245   1.045       .  S
N3242      H3246   1.045       .  S
C3247      H3254   1.083       .  S
C3247      C3248   1.408       .  A
C3247      C3252   1.399       .  A
C3248      C3249   1.409       .  A
C3249      C3250   1.400       .  A
C3249      N3256   1.432       .  S
C3250      H3255   1.083       .  S
C3250      C3251   1.402       .  A
C3251      C3252   1.404       .  A
C3252      N3253   1.439       .  S
N3253      H3257   1.046       .  S
N3253      H3258   1.044       .  S
N3256      H3259   1.045       .  S
N3256      H3260   1.046       .  S
C3261      H3268   1.083       .  S
C3261      C3262   1.412       .  A
C3261      C3266   1.399       .  A
C3262      C3263   1.418       .  A
C3263      C3264   1.406       .  A
C3263      N3270   1.438       .  S
C3264      H3269   1.083       .  S
C3264      C3265   1.401       .  A
C3265      C3266   1.403       .  A
C3266      N3267   1.438       .  S
N3267      H3271   1.046       .  S
N3267      H3272   1.045       .  S
N3270      H3273   1.045       .  S
N3270      H3274   1.046       .  S
C3275      H3282   1.084       .  S
C3275      C3276   1.410       .  A
C3275      C3280   1.402       .  A
C3276      C3277   1.414       .  A
C3278      H3283   1.084       .  S
C3279      C3280   1.414       .  A
C3280      N3281   1.439       .  S
N3281      H3285   1.046       .  S
N3281      H3286   1.043       .  S
N3284      H3287   1.046       .  S
N3284      H3288   1.046       .  S
C3289      H3296   1.084       .  S
C3289      C3290   1.409       .  A
C3289      C3294   1.405       .  A
C3290      C3291   1.424       .  A
C3291      C3292   1.395       .  A
C3291      N3298   1.433       .  S
C3292      H3297   1.084       .  S
C3292      C3293   1.398       .  A
C3293      C3294   1.407       .  A
C3294      N3295   1.432       .  S
N3295      H3299   1.046       .  S
N3295      H3300   1.046       .  S
N3298      H3301   1.044       .  S
N3298      H3302   1.045       .  S
C3303      H3310   1.083       .  S
C3303      C3304   1.398       .  A
C3303      C3308   1.407       .  A
C3304      C3305   1.418       .  A
C3305      C3306   1.409       .  A
C3305      N3312   1.438       .  S
C3306      H3311   1.083   1_655  S
C3306      C3307   1.408       .  A
C3307      C3308   1.425       .  A
C3308      N3309   1.439       .  S
N3309      H3313   1.046       .  S
N3309      H3314   1.046       .  S
N3312      H3315   1.043       .  S
N3312      H3316   1.045   1_655  S
C3317      H3324   1.084       .  S
C3317      C3318   1.403       .  A
C3317      C3322   1.408       .  A
C3318      C3319   1.410       .  A
C3319      C3320   1.409       .  A
C3319      N3326   1.438       .  S
C3320      H3325   1.083       .  S
C3320      C3321   1.409       .  A
C3321      C3322   1.416       .  A
C3322      N3323   1.438   1_655  S
N3323      H3327   1.046       .  S
N3323      H3328   1.045       .  S
N3326      H3329   1.043       .  S
N3326      H3330   1.046       .  S
C3331      H3338   1.084       .  S
C3331      C3332   1.405       .  A
C3331      C3336   1.403       .  A
C3332      C3333   1.411       .  A
C3333      C3334   1.409       .  A
C3333      N3340   1.431       .  S
C3334      H3339   1.084       .  S
C3334      C3335   1.407       .  A
C3335      C3336   1.411       .  A
C3336      N3337   1.432       .  S
N3337      H4493   1.044       .  S
N3337      H4494   1.046       .  S
N3340      H3343   1.045       .  S
N3340      H3344   1.046       .  S
H3341      N4489   1.045       .  S
H3342      N4489   1.046       .  S
C3345      H3352   1.084       .  S
C3345      C3346   1.412   1_565  A
C3345      C3350   1.400   1_565  A
C3346      C3574   1.494   1_545  S
C3346      C3347   1.420       .  A
C3347      C3348   1.405       .  A
C3347      N4506   1.438       .  S
C3348      H3353   1.084       .  S
C3348      C3349   1.400       .  A
C3349      C3350   1.408       .  A
C3350      N3351   1.433   1_545  S
N3351      H3355   1.043   1_565  S
N3351      H3356   1.045       .  S
N3354      C4499   1.438       .  S
N3354      H3357   1.046       .  S
N3354      H3358   1.046       .  S
C3359      H3366   1.082       .  S
C3359      C3360   1.402       .  A
C3359      C3364   1.395       .  A
C3360      C3361   1.410       .  A
C3361      C3362   1.402       .  A
C3361      N3368   1.439       .  S
C3362      H3367   1.084       .  S
C3362      C3363   1.404       .  A
C3363      C3364   1.406       .  A
C3364      N3365   1.433       .  S
N3365      H3369   1.045       .  S
N3365      H3370   1.045       .  S
N3368      H3371   1.043       .  S
N3368      H3372   1.046       .  S
C3373      H3380   1.083       .  S
C3373      C3374   1.409       .  A
C3373      C3378   1.404       .  A
C3374      C3375   1.413       .  A
C3375      C3376   1.403       .  A
C3375      N3382   1.431       .  S
C3376      H3381   1.084       .  S
C3376      C3377   1.400       .  A
C3377      C3378   1.408       .  A
C3378      N3379   1.437       .  S
N3379      H3383   1.045       .  S
N3379      H3384   1.041       .  S
N3382      H3385   1.044       .  S
N3382      H3386   1.045       .  S
C3387      H3394   1.084       .  S
C3387      C3388   1.404       .  A
C3387      C3392   1.407       .  A
C3388      C3389   1.414       .  A
C3389      C3390   1.399       .  A
C3389      N3396   1.439       .  S
C3390      H4547   1.084       .  S
C3390      C3391   1.407       .  A
C3391      C3564   1.485   1_545  S
C3391      C3392   1.413       .  A
C3392      N3393   1.438       .  S
N3393      H3397   1.046       .  S
N3393      H4550   1.046       .  S
H3395      C4542   1.084       .  S
N3396      H3399   1.042       .  S
N3396      H3400   1.046       .  S
H3398      N4545   1.046       .  S
C3401      H3408   1.084       .  S
C3401      C3402   1.401       .  A
C3401      C3406   1.397       .  A
C3402      C3403   1.405       .  A
C3403      C3404   1.407       .  A
C3404      H3409   1.083       .  S
C3404      C3405   1.411       .  A
C3405      C3406   1.421       .  A
C3406      N3407   1.433       .  S
N3407      H3411   1.044       .  S
N3407      H3412   1.045       .  S
N3410      H3413   1.046       .  S
N3410      H3414   1.045       .  S
C3415      H3422   1.083       .  S
C3415      C3416   1.408       .  A
C3415      C3420   1.405       .  A
C3416      C3417   1.418       .  A
C3417      C3418   1.410       .  A
C3417      N3424   1.438       .  S
C3418      H3423   1.083       .  S
C3418      C3419   1.402       .  A
C3419      C3420   1.407       .  A
C3420      N3421   1.437       .  S
N3421      H3425   1.046       .  S
N3421      H3426   1.045       .  S
N3424      H3427   1.046       .  S
N3424      H3428   1.046       .  S
C3429      H3436   1.084   1_655  S
C3429      C3430   1.408       .  A
C3429      C3434   1.401       .  A
C3430      C3431   1.424       .  A
C3431      C3432   1.400       .  A
C3432      H3437   1.084       .  S
C3432      C3433   1.399       .  A
C3433      C3434   1.403       .  A
C3434      N3435   1.431       .  S
N3435      H3439   1.045   1_655  S
N3435      H3440   1.045       .  S
N3438      H3441   1.045       .  S
N3438      H3442   1.045       .  S
C3443      H3450   1.084       .  S
C3443      C3444   1.400       .  A
C3443      C3448   1.409       .  A
C3444      C3445   1.409       .  A
C3445      C3446   1.404       .  A
C3445      N3452   1.433       .  S
C3446      H3451   1.084       .  S
C3446      C3447   1.405       .  A
C3447      C3448   1.422       .  A
C3448      N3449   1.439       .  S
N3449      H3453   1.046       .  S
N3449      H3454   1.046       .  S
N3452      H3455   1.045       .  S
N3452      H3456   1.046       .  S
O3457     Mg3459   2.163       .  S
O3457     Mg3465   2.176       .  S
O3457      C3492   1.235       .  S
C3458      O3471   1.234       .  S
C3458      O3495   1.269       .  A
C3458      H3497   1.081       .  S
Mg3459     O3488   2.162       .  S
Mg3459     O3503   2.283       .  S
Mg3459     O3499   2.263       .  S
Mg3459     O3470   2.305       .  S
O3460     Mg3502   2.160       .  S
O3460     Mg3485   2.141       .  S
O3460      C3481   1.233       .  S
O3461      C3492   1.270       .  A
O3461     Mg3485   2.305       .  S
C3462      O3464   1.270       .  A
C3462      O3476   1.276       .  A
C3462      C4568   1.492       .  S
O3463      C3491   1.268       .  A
O3463     Mg3465   2.294       .  S
O3464     Mg3496   2.260       .  S
Mg3465     O3471   2.160       .  S
Mg3465     O3467   2.310       .  S
C3466      O3504   1.270       .  A
C3466      O3472   1.267       .  A
C3466      C4018   1.451       .  S
O3467      C3474   1.276       .  A
H3468      C3481   1.081       .  S
C3469      O3483   1.237       .  S
C3469      O3484   1.272       .  A
C3469      H3494   1.081       .  S
O3470      C3493   1.269       .  A
O3471     Mg3485   2.152       .  S
O3472     Mg3502   2.270       .  S
C3473      O3486   1.269       .  A
C3473      O3478   1.275       .  A
C3473      C4599   1.493       .  S
C3474      O3501   1.270       .  A
Mg3475     O3482   2.143       .  S
Mg3475     O3483   2.176       .  S
Mg3475     O3476   2.309       .  S
Mg3475     O3477   2.293       .  S
Mg3475     O3504   2.253       .  S
O3477      C3481   1.267       .  A
O3478     Mg3485   2.314       .  S
O3479      C3498   1.272       .  A
O3480      C3500   1.272       .  A
O3480     Mg3496   2.297       .  S
O3482     Mg3496   2.137       .  S
O3482      C3493   1.234       .  S
O3483     Mg3502   2.164       .  S
O3484     Mg3496   2.311       .  S
Mg3485     O3501   2.244       .  S
O3486     Mg3502   2.255       .  S
H3487      C3492   1.081       .  S
O3488     Mg3496   2.151       .  S
O3488      C3491   1.233       .  S
H3489      C3491   1.081       .  S
H3490      C3493   1.081       .  S
O3495     Mg3502   2.301       .  S
C3498      C4050   1.458       .  S
O3499      C3500   1.270       .  A
C3500      C4557   1.492       .  S
C3505      C4596   1.486       .  S
C3505      C3506   1.419       .  A
C3505      C3510   1.400       .  A
C3506      C4540   1.478       .  S
C3506      C3507   1.405       .  A
C3507      H3512   1.084       .  S
C3507      C3508   1.397       .  A
C3508      C4529   1.484       .  S
C3508      C3509   1.412       .  A
C3509      C4512   1.473       .  S
C3509      C3510   1.397       .  A
C3510      H3511   1.085       .  S
C3513      C4585   1.486       .  S
C3513      C3514   1.410       .  A
C3513      C3518   1.402       .  A
C3514      C4501   1.486       .  S
C3514      C3515   1.400       .  A
C3515      H3520   1.084       .  S
C3515      C3516   1.409       .  A
C3516      C4484   1.493       .  S
C3516      C3517   1.425       .  A
C3517      C4470   1.492       .  S
C3517      C3518   1.409       .  A
C3518      H3519   1.084       .  S
O3521     Mg3523   2.140       .  S
O3521     Mg3529   2.160       .  S
O3521      C3556   1.235       .  S
C3522      O3535   1.234       .  S
C3522      O3559   1.268       .  A
C3522      H3561   1.081       .  S
Mg3523     O3552   2.172       .  S
Mg3523     O3563   2.270       .  S
Mg3523     O3534   2.305       .  S
O3524     Mg3566   2.159       .  S
O3524     Mg3549   2.149       .  S
O3524      C3545   1.235       .  S
O3525      C3556   1.269       .  A
O3525     Mg3549   2.298       .  S
C3526      O3528   1.276       .  A
C3526      O3540   1.272       .  A
O3527      C3555   1.270       .  A
O3527     Mg3529   2.302       .  S
O3528     Mg3560   2.309       .  S
Mg3529     O3535   2.150       .  S
Mg3529     O3531   2.262       .  S
C3530      O3568   1.270       .  A
C3530      C4052   1.462       .  S
O3531      C3538   1.268       .  A
H3532      C3545   1.081       .  S
C3533      O3547   1.235       .  S
C3533      O3548   1.270       .  A
C3533      H3558   1.081       .  S
O3534      C3557   1.270       .  A
O3535     Mg3549   2.167       .  S
O3536     Mg3566   2.293       .  S
C3537      O3550   1.276       .  A
C3537      O3542   1.275       .  A
C3537      C4428   1.504       .  S
C3538      O3565   1.272       .  A
C3538      C4442   1.485       .  S
Mg3539     O3546   2.160       .  S
Mg3539     O3547   2.168       .  S
Mg3539     O3540   2.289       .  S
Mg3539     O3541   2.299       .  S
O3541      C3545   1.269       .  A
O3542     Mg3549   2.298       .  S
O3543      C3562   1.271       .  A
O3544      C3564   1.276       .  A
O3544     Mg3560   2.296       .  S
O3546     Mg3560   2.161       .  S
O3546      C3557   1.235       .  S
O3547     Mg3566   2.162       .  S
O3548     Mg3560   2.304       .  S
Mg3549     O3565   2.273       .  S
O3550     Mg3566   2.308       .  S
H3551      C3556   1.081       .  S
O3552     Mg3560   2.172       .  S
O3552      C3555   1.235       .  S
H3553      C3555   1.081       .  S
H3554      C3557   1.081       .  S
O3559     Mg3566   2.297       .  S
C3562      O3567   1.278       .  A
C3562      C4025   1.478       .  S
O3563      C3564   1.273       .  A
O3569     Mg3571   2.131       .  S
O3569     Mg3577   2.178       .  S
O3569      C3604   1.236       .  S
C3570      O3583   1.235       .  S
C3570      O3607   1.272       .  A
C3570      H3609   1.081       .  S
Mg3571     O3600   2.146       .  S
Mg3571     O3615   2.311       .  S
Mg3571     O3611   2.273       .  S
Mg3571     O3582   2.315       .  S
O3572     Mg3614   2.146       .  S
O3572     Mg3597   2.161       .  S
O3572      C3593   1.234       .  S
O3573      C3604   1.270       .  A
O3573     Mg3597   2.295       .  S
C3574      O3576   1.267       .  A
C3574      O3588   1.272       .  A
O3575      C3603   1.264       .  A
O3575     Mg3577   2.286       .  S
O3576     Mg3608   2.248       .  S
Mg3577     O3583   2.163       .  S
Mg3577     O3591   2.294       .  S
Mg3577     O3579   2.251       .  S
C3578      O3616   1.270       .  A
C3578      C4026   1.466       .  S
O3579      C3586   1.269       .  A
H3580      C3593   1.081       .  S
C3581      O3595   1.237       .  S
C3581      O3596   1.273       .  A
C3581      H3606   1.081   1_565  S
O3582      C3605   1.272       .  A
O3583     Mg3597   2.160       .  S
O3584     Mg3614   2.326   1_545  S
C3585      O3598   1.276       .  A
C3585      O3590   1.270       .  A
C3585      C4386   1.493       .  S
C3586      O3613   1.270       .  A
C3586      C4400   1.478       .  S
Mg3587     O3594   2.146       .  S
Mg3587     O3595   2.166       .  S
Mg3587     O3588   2.304       .  S
Mg3587     O3589   2.308       .  S
O3589      C3593   1.269       .  A
O3590     Mg3597   2.286       .  S
O3591      C3610   1.273       .  A
O3592      C3612   1.269       .  A
O3592     Mg3608   2.267       .  S
O3594     Mg3608   2.137       .  S
O3594      C3605   1.236       .  S
O3595     Mg3614   2.162       .  S
O3596     Mg3608   2.310       .  S
Mg3597     O3613   2.265       .  S
O3598     Mg3614   2.309       .  S
H3599      C3604   1.081       .  S
O3600     Mg3608   2.139       .  S
O3600      C3603   1.231       .  S
H3601      C3603   1.081       .  S
H3602      C3605   1.081       .  S
O3607     Mg3614   2.313       .  S
C3610      O3615   1.277       .  A
C3610      C4014   1.473       .  S
O3611      C3612   1.271       .  A
C3612      C4414   1.488       .  S
C3617      C4456   1.494       .  S
C3617      C3618   1.413       .  A
C3617      C3622   1.414       .  A
C3618      C4417   1.474       .  S
C3618      C3619   1.394       .  A
C3619      H3624   1.085       .  S
C3619      C3620   1.393       .  A
C3620      C4372   1.472       .  S
C3620      C3621   1.412       .  A
C3621      C4358   1.493       .  S
C3621      C3622   1.414       .  A
C3622      H3623   1.083       .  S
O3625     Mg3627   2.151   1_554  S
O3625      C3660   1.237       .  S
C3626      O3639   1.234       .  S
C3626      O3663   1.270       .  A
C3626      H3665   1.081       .  S
Mg3627     O3638   2.302       .  S
O3628     Mg3653   2.160       .  S
O3628      C3649   1.237       .  S
O3629      C3660   1.273       .  A
O3629     Mg3653   2.315       .  S
C3630      O3632   1.269       .  A
C3630      O3644   1.270       .  A
C3630      C4344   1.481       .  S
O3631      C3659   1.269   1_554  A
O3631     Mg3633   2.299   1_565  S
O3632     Mg3664   2.257       .  S
Mg3633     O3639   2.171   1_545  S
Mg3633     O3647   2.280       .  S
C3634      O3672   1.271       .  A
C3634      O3640   1.277   1_556  A
O3635      C3642   1.271       .  A
H3636      C3649   1.081       .  S
C3637      O3651   1.237       .  S
C3637      O3652   1.273       .  A
C3637      H3662   1.081   1_556  S
O3638      C3661   1.268       .  A
C3641      O3654   1.274       .  A
C3641      O3646   1.275       .  A
C3641      C4487   1.490       .  S
C3642      O3669   1.270       .  A
C3642      C4526   1.489       .  S
Mg3643     O3650   2.169       .  S
Mg3643     O3645   2.304       .  S
Mg3643     O3672   2.296       .  S
O3645      C3649   1.271   1_556  A
O3646     Mg3653   2.308       .  S
O3647      C3666   1.270   1_545  A
O3648      C3668   1.276       .  A
O3648     Mg3664   2.305       .  S
O3650      C3661   1.233       .  S
O3651     Mg3670   2.142   1_556  S
O3652     Mg3664   2.314       .  S
Mg3653     O3669   2.277       .  S
H3655      C3660   1.081   1_556  S
O3656     Mg3664   2.146       .  S
O3656      C3659   1.235       .  S
H3657      C3659   1.081       .  S
H3658      C3661   1.081       .  S
O3663     Mg3670   2.312       .  S
C3666      O3671   1.276   1_554  A
C3666      C4002   1.466       .  S
O3667      C3668   1.275       .  A
C3668      C4330   1.498       .  S
O3673     Mg3675   2.151   1_556  S
O3673     Mg3681   2.179       .  S
O3673      C3708   1.236       .  S
C3674      O3687   1.236       .  S
C3674      O3711   1.271       .  A
C3674      H3713   1.081       .  S
Mg3675     O3704   2.140       .  S
Mg3675     O3719   2.265       .  S
Mg3675     O3715   2.257       .  S
Mg3675     O3686   2.302       .  S
O3676     Mg3718   2.146       .  S
O3676     Mg3701   2.131       .  S
O3676      C3697   1.231       .  S
O3677      C3708   1.270       .  A
O3677     Mg3701   2.300       .  S
C3678      O3680   1.265       .  A
C3678      O3692   1.271       .  A
C3678      C4515   1.463       .  S
O3679      C3707   1.265   1_556  A
O3679     Mg3681   2.289       .  S
O3680     Mg3712   2.209       .  S
Mg3681     O3687   2.145       .  S
Mg3681     O3695   2.260       .  S
Mg3681     O3683   2.305       .  S
C3682      O3720   1.271   1_556  A
C3682      O3688   1.268       .  A
C3682      C4004   1.455       .  S
O3683      C3690   1.275       .  A
H3684      C3697   1.081       .  S
C3685      O3699   1.236       .  S
C3685      O3700   1.270       .  A
C3685      H3710   1.081   1_554  S
O3686      C3709   1.270       .  A
O3687     Mg3701   2.145       .  S
O3688     Mg3718   2.280       .  S
C3689      O3702   1.266       .  A
C3689      O3694   1.270       .  A
C3689      C4319   1.481       .  S
C3690      O3717   1.268       .  A
C3690      C4302   1.477       .  S
Mg3691     O3698   2.133       .  S
Mg3691     O3699   2.178       .  S
Mg3691     O3692   2.276       .  S
Mg3691     O3693   2.284       .  S
Mg3691     O3720   2.256       .  S
O3693      C3697   1.264   1_554  A
O3694     Mg3701   2.286       .  S
O3695      C3714   1.273       .  A
O3696      C3716   1.268       .  A
O3696     Mg3712   2.280       .  S
O3698     Mg3712   2.143       .  S
O3698      C3709   1.235       .  S
O3699     Mg3718   2.130   1_554  S
O3700     Mg3712   2.293       .  S
Mg3701     O3717   2.230       .  S
O3702     Mg3718   2.226       .  S
H3703      C3708   1.081       .  S
O3704     Mg3712   2.125       .  S
O3704      C3707   1.232       .  S
H3705      C3707   1.081       .  S
H3706      C3709   1.081       .  S
O3711     Mg3718   2.310       .  S
C3714      O3719   1.267   1_556  A
C3714      C3977   1.450       .  S
O3715      C3716   1.269       .  A
C3716      C4375   1.486       .  S
O3721     Mg3723   2.172   1_556  S
O3721      C3756   1.233       .  S
C3722      O3735   1.233       .  S
C3722      O3759   1.267       .  A
C3722      H3761   1.081       .  S
Mg3723     O3734   2.288       .  S
O3724     Mg3749   2.164       .  S
O3724      C3745   1.235       .  S
O3725      C3756   1.269       .  A
O3725     Mg3749   2.303       .  S
C3726      O3728   1.277       .  A
C3726      O3740   1.278       .  A
C3726      C4361   1.505       .  S
O3727      C3755   1.269   1_556  A
O3727     Mg3729   2.298       .  S
O3728     Mg3760   2.294       .  S
Mg3729     O3735   2.148       .  S
Mg3729     O3743   2.271       .  S
C3730      O3768   1.273   1_556  A
C3730      O3736   1.269       .  A
C3730      C3978   1.464       .  S
O3731      C3738   1.280       .  A
H3732      C3745   1.081       .  S
C3733      O3747   1.234       .  S
C3733      O3748   1.269       .  A
C3733      H3758   1.081   1_554  S
O3734      C3757   1.266       .  A
C3737      O3750   1.271       .  A
C3737      O3742   1.276       .  A
C3737      C4274   1.492       .  S
C3738      O3765   1.275       .  A
C3738      C4288   1.503       .  S
Mg3739     O3746   2.147       .  S
Mg3739     O3741   2.297       .  S
Mg3739     O3768   2.275       .  S
O3741      C3745   1.269   1_554  A
O3742     Mg3749   2.314       .  S
O3743      C3762   1.274   1_556  A
O3744      C3764   1.279       .  A
O3744     Mg3760   2.328       .  S
O3746      C3757   1.233       .  S
O3747     Mg3766   2.169   1_554  S
O3748     Mg3760   2.305       .  S
Mg3749     O3765   2.286       .  S
H3751      C3756   1.081   1_554  S
O3752     Mg3760   2.165       .  S
O3752      C3755   1.235       .  S
H3753      C3755   1.081       .  S
H3754      C3757   1.081       .  S
O3759     Mg3766   2.294       .  S
C3762      O3767   1.268       .  A
O3763      C3764   1.272       .  A
C3764      C4473   1.495       .  S
O3769     Mg3771   2.161       .  S
O3769     Mg3777   2.162       .  S
O3769      C3804   1.236       .  S
C3770      O3783   1.237       .  S
C3770      O3807   1.273       .  A
C3770      H3809   1.081       .  S
Mg3771     O3800   2.146       .  S
Mg3771     O3815   2.300       .  S
Mg3771     O3811   2.276       .  S
Mg3771     O3782   2.307       .  S
O3772     Mg3814   2.137       .  S
O3772     Mg3797   2.134       .  S
O3772      C3793   1.233       .  S
O3773      C3804   1.270       .  A
O3773     Mg3797   2.301       .  S
C3774      O3776   1.266       .  A
C3774      O3788   1.275       .  A
C3774      C4260   1.488       .  S
O3775      C3803   1.267       .  A
O3775     Mg3777   2.299       .  S
O3776     Mg3808   2.227       .  S
Mg3777     O3783   2.151       .  S
Mg3777     O3779   2.336       .  S
C3778      O3816   1.273       .  A
C3778      O3784   1.269       .  A
C3778      C4062   1.460       .  S
O3779      C3786   1.279       .  A
H3780      C3793   1.081       .  S
C3781      O3795   1.235       .  S
C3781      O3796   1.270       .  A
C3781      H3806   1.081       .  S
O3782      C3805   1.272       .  A
O3783     Mg3797   2.144       .  S
O3784     Mg3814   2.294       .  S
C3785      O3798   1.265       .  A
C3785      O3790   1.268       .  A
C3785      C4232   1.483       .  S
C3786      O3813   1.265       .  A
Mg3787     O3794   2.158       .  S
Mg3787     O3795   2.151       .  S
Mg3787     O3788   2.305       .  S
Mg3787     O3789   2.300       .  S
Mg3787     O3816   2.272       .  S
O3789      C3793   1.268       .  A
O3790     Mg3797   2.276       .  S
O3791      C3810   1.272       .  A
O3792      C3812   1.272       .  A
O3792     Mg3808   2.288       .  S
O3794     Mg3808   2.151       .  S
O3794      C3805   1.237       .  S
O3795     Mg3814   2.140       .  S
O3796     Mg3808   2.301       .  S
Mg3797     O3813   2.218       .  S
O3798     Mg3814   2.240       .  S
H3799      C3804   1.081       .  S
O3800     Mg3808   2.136       .  S
O3800      C3803   1.232       .  S
H3801      C3803   1.081       .  S
H3802      C3805   1.081       .  S
O3807     Mg3814   2.315       .  S
C3810      C4074   1.456       .  S
O3811      C3812   1.271       .  A
C3812      C4246   1.494       .  S
C3817      C4316   1.467       .  S
C3817      C3818   1.411       .  A
C3817      C3822   1.390       .  A
C3818      C4291   1.493       .  S
C3818      C3819   1.416       .  A
C3819      H3824   1.083       .  S
C3819      C3820   1.417       .  A
C3820      C4207   1.494       .  S
C3820      C3821   1.411       .  A
C3821      C4235   1.471       .  S
C3821      C3822   1.389       .  A
C3822      H3823   1.086       .  S
C3825      C4277   1.485       .  S
C3825      C3826   1.420       .  A
C3825      C3830   1.404       .  A
C3826      C4333   1.489       .  S
C3826      C3827   1.409       .  A
C3827      H3832   1.084       .  S
C3827      C3828   1.403       .  A
C3828      C4221   1.487       .  S
C3828      C3829   1.410       .  A
C3829      C4190   1.478       .  S
C3829      C3830   1.397       .  A
C3830      H3831   1.084       .  S
O3833     Mg3835   2.169       .  S
O3833     Mg3841   2.158       .  S
O3833      C3868   1.233       .  S
C3834      O3847   1.237       .  S
C3834      O3871   1.272       .  A
C3834      H3873   1.081       .  S
Mg3835     O3864   2.157       .  S
Mg3835     O3879   2.279   1_655  S
Mg3835     O3875   2.257       .  S
Mg3835     O3846   2.294       .  S
O3836     Mg3878   2.155       .  S
O3836     Mg3861   2.163       .  S
O3836      C3857   1.235       .  S
O3837      C3868   1.268       .  A
O3837     Mg3861   2.302       .  S
C3838      O3840   1.272       .  A
C3838      O3852   1.280       .  A
C3838      C4165   1.496       .  S
O3839      C3867   1.270       .  A
O3839     Mg3841   2.307       .  S
O3840     Mg3872   2.262       .  S
Mg3841     O3847   2.159       .  S
Mg3841     O3843   2.342   1_655  S
C3842      O3880   1.272       .  A
C3842      O3848   1.270       .  A
C3842      C4073   1.460       .  S
O3843      C3850   1.281   1_455  A
H3844      C3857   1.081       .  S
C3845      O3859   1.233       .  S
C3845      O3860   1.267       .  A
C3845      H3870   1.081       .  S
O3846      C3869   1.269       .  A
O3847     Mg3861   2.166       .  S
C3849      O3862   1.265       .  A
C3849      O3854   1.274       .  A
C3850      O3877   1.273       .  A
Mg3851     O3858   2.144       .  S
Mg3851     O3859   2.147       .  S
Mg3851     O3852   2.330       .  S
Mg3851     O3853   2.310       .  S
O3853      C3857   1.271       .  A
O3854     Mg3861   2.307       .  S
O3855      C3874   1.273       .  A
O3856      C3876   1.273       .  A
O3856     Mg3872   2.291       .  S
O3858     Mg3872   2.163       .  S
O3858      C3869   1.235       .  S
O3859     Mg3878   2.151       .  S
O3860     Mg3872   2.295       .  S
Mg3861     O3877   2.271       .  S
O3862     Mg3878   2.234       .  S
H3863      C3868   1.081       .  S
O3864     Mg3872   2.154       .  S
O3864      C3867   1.234       .  S
H3865      C3867   1.081       .  S
H3866      C3869   1.081       .  S
O3871     Mg3878   2.305       .  S
C3874      C4100   1.459       .  S
O3875      C3876   1.268       .  A
C3876      C4176   1.489       .  S
O3881     Mg3883   2.143       .  S
O3881     Mg3889   2.128       .  S
O3881      C3916   1.237       .  S
C3882      O3895   1.235       .  S
C3882      O3919   1.270       .  A
C3882      H3921   1.081       .  S
Mg3883     O3912   2.157       .  S
Mg3883     O3927   2.326       .  S
Mg3883     O3923   2.283       .  S
Mg3883     O3894   2.311       .  S
O3884     Mg3926   2.165       .  S
O3884     Mg3909   2.151       .  S
O3884      C3905   1.236       .  S
O3885      C3916   1.274       .  A
O3885     Mg3909   2.322       .  S
C3886      O3888   1.268       .  A
C3886      O3900   1.270       .  A
O3887      C3915   1.272       .  A
O3887     Mg3889   2.314       .  S
O3888     Mg3920   2.249       .  S
Mg3889     O3895   2.163       .  S
Mg3889     O3903   2.270       .  S
Mg3889     O3891   2.272       .  S
C3890      O3928   1.271       .  A
C3890      C4098   1.473       .  S
O3891      C3898   1.265       .  A
H3892      C3905   1.081       .  S
C3893      O3907   1.235       .  S
C3893      O3908   1.271       .  A
C3893      H3918   1.081   1_655  S
O3894      C3917   1.271       .  A
O3895     Mg3909   2.146       .  S
O3896     Mg3926   2.327   1_455  S
C3897      O3910   1.275       .  A
C3897      O3902   1.271       .  A
C3897      C4134   1.491       .  S
C3898      O3925   1.268       .  A
C3898      C4120   1.486       .  S
Mg3899     O3906   2.178       .  S
Mg3899     O3907   2.134       .  S
Mg3899     O3900   2.270       .  S
Mg3899     O3901   2.309       .  S
O3901      C3905   1.272       .  A
O3902     Mg3909   2.278       .  S
O3903      C3922   1.266       .  A
O3904      C3924   1.273       .  A
O3904     Mg3920   2.292       .  S
O3906     Mg3920   2.161       .  S
O3906      C3917   1.235       .  S
O3907     Mg3926   2.142       .  S
O3908     Mg3920   2.306       .  S
Mg3909     O3925   2.275       .  S
O3910     Mg3926   2.300       .  S
H3911      C3916   1.081       .  S
O3912     Mg3920   2.148       .  S
O3912      C3915   1.236       .  S
H3913      C3915   1.081       .  S
H3914      C3917   1.081       .  S
O3919     Mg3926   2.308       .  S
C3922      O3927   1.276       .  A
C3922      C4066   1.469       .  S
O3923      C3924   1.273       .  A
C3924      C4106   1.494       .  S
C3929      C4305   1.480       .  S
C3929      C3930   1.408       .  A
C3929      C3934   1.399       .  A
C3930      C4347   1.472       .  S
C3930      C3931   1.395       .  A
C3931      H3936   1.085       .  S
C3931      C3932   1.401       .  A
C3932      C4148   1.478       .  S
C3932      C3933   1.418       .  A
C3933      C4109   1.485       .  S
C3933      C3934   1.405       .  A
C3934      H3935   1.084       .  S
C3937      C4554   1.480       .  S
C3937      C3938   1.414       .  A
C3937      C3942   1.399       .  A
C3938      C4431   1.490       .  S
C3938      C3939   1.409       .  A
C3939      H3944   1.084       .  S
C3940      C4137   1.490       .  S
C3940      C3941   1.417       .  A
C3941      C4179   1.483       .  S
C3942      H3943   1.085       .  S
C3945      C4571   1.486       .  S
C3945      C3946   1.413       .  A
C3945      C3950   1.405       .  A
C3946      C4403   1.473       .  S
C3946      C3947   1.399       .  A
C3947      H3952   1.084       .  S
C3947      C3948   1.395       .  A
C3948      C4123   1.476       .  S
C3948      C3949   1.410       .  A
C3949      C4263   1.478       .  S
C3949      C3950   1.405       .  A
C3950      H3951   1.084       .  S
C3953      C4445   1.481       .  S
C3953      C3954   1.416       .  A
C3953      C3958   1.402       .  A
C3954      C4389   1.488       .  S
C3954      C3955   1.405   1_565  A
C3955      H3960   1.084       .  S
C3956      C4162   1.486       .  S
C3956      C3957   1.415       .  A
C3957      C4249   1.485       .  S
C3958      H3959   1.085       .  S
O3961     Mg3969   2.166   1_556  S
O3961      C3996   1.232       .  S
C3962      O3975   1.235       .  S
C3962      O3999   1.270       .  A
C3962      H4001   1.081       .  S
Mg3963     O3992   2.165   1_556  S
Mg3963     O4007   2.327   1_556  S
Mg3963     O4003   2.250       .  S
Mg3963     O3974   2.306       .  S
O3964     Mg4006   2.163   1_556  S
O3964     Mg3989   2.170       .  S
O3964      C3985   1.232       .  S
O3965     Mg3989   2.285   1_455  S
C3966      O3968   1.274       .  A
O3967     Mg3969   2.304   1_545  S
O3968     Mg4000   2.284       .  S
Mg3969     O3983   2.258       .  S
Mg3969     O3971   2.275       .  S
C3970      O3976   1.277   1_545  A
O3971      C3978   1.268   1_554  A
H3972      C3985   1.081       .  S
C3973      O3987   1.233       .  S
C3973      H3998   1.081       .  S
O3974      C3997   1.270       .  A
O3975     Mg3989   2.182   1_554  S
O3976     Mg4006   2.325   1_556  S
C3977      O3990   1.270   1_556  A
C3977      O3982   1.269       .  A
Mg3979     O3987   2.161   1_556  S
Mg3979     O3980   2.258       .  S
Mg3979     O3981   2.299       .  S
Mg3979     O4008   2.275       .  S
O3982     Mg3989   2.273       .  S
O3983      C4002   1.268       .  A
O3984      C4004   1.272   1_554  A
O3984     Mg4000   2.293       .  S
O3986     Mg4000   2.182   1_556  S
O3986      C3997   1.235       .  S
O3988     Mg4000   2.291       .  S
Mg3989     O4005   2.279       .  S
O3990     Mg4006   2.249       .  S
H3991      C3996   1.081       .  S
O3992     Mg4000   2.170       .  S
O3992      C3995   1.232       .  S
H3993      C3995   1.081       .  S
H3994      C3997   1.081       .  S
O3999     Mg4006   2.303       .  S
O4003      C4004   1.270       .  A
O4009     Mg4011   2.163       .  S
O4009     Mg4017   2.176       .  S
O4009      C4044   1.233       .  S
C4010      O4023   1.233       .  S
C4010      O4047   1.268       .  A
C4010      H4049   1.081       .  S
Mg4011     O4040   2.180       .  S
Mg4011     O4055   2.252       .  S
Mg4011     O4051   2.277       .  S
Mg4011     O4022   2.289       .  S
O4012     Mg4054   2.169       .  S
O4012     Mg4037   2.154       .  S
O4012      C4033   1.236       .  S
O4013      C4044   1.268       .  A
O4013     Mg4037   2.300       .  S
C4014      O4016   1.272       .  A
C4014      O4028   1.277       .  A
O4015      C4043   1.267       .  A
O4015     Mg4017   2.290       .  S
O4016     Mg4048   2.292       .  S
Mg4017     O4023   2.159       .  S
Mg4017     O4031   2.293       .  S
Mg4017     O4019   2.306       .  S
C4018      O4056   1.271       .  A
C4018      O4024   1.267       .  A
O4019      C4026   1.277       .  A
H4020      C4033   1.081       .  S
C4021      O4035   1.234       .  S
C4021      O4036   1.270       .  A
C4021      H4046   1.081       .  S
O4022      C4045   1.267       .  A
O4023     Mg4037   2.174       .  S
O4024     Mg4054   2.261       .  S
C4025      O4038   1.272       .  A
C4025      O4030   1.275       .  A
C4026      O4053   1.272       .  A
Mg4027     O4034   2.141       .  S
Mg4027     O4035   2.167       .  S
Mg4027     O4028   2.317       .  S
Mg4027     O4029   2.306       .  S
Mg4027     O4056   2.263       .  S
O4029      C4033   1.271       .  A
O4030     Mg4037   2.305       .  S
O4031      C4050   1.275       .  A
O4032      C4052   1.274       .  A
O4032     Mg4048   2.284       .  S
O4034     Mg4048   2.168       .  S
O4034      C4045   1.234       .  S
O4035     Mg4054   2.183       .  S
O4036     Mg4048   2.307       .  S
Mg4037     O4053   2.278       .  S
O4038     Mg4054   2.307       .  S
H4039      C4044   1.081       .  S
O4040     Mg4048   2.140       .  S
O4040      C4043   1.234       .  S
H4041      C4043   1.081       .  S
H4042      C4045   1.081       .  S
O4047     Mg4054   2.296       .  S
C4050      O4055   1.266       .  A
O4051      C4052   1.270       .  A
O4057     Mg4059   2.142       .  S
O4057     Mg4065   2.167       .  S
O4057      C4092   1.233       .  S
C4058      O4071   1.233       .  S
C4058      O4095   1.267       .  A
C4058      H4097   1.081       .  S
Mg4059     O4088   2.174       .  S
Mg4059     O4103   2.294       .  S
Mg4059     O4099   2.246       .  S
Mg4059     O4070   2.300       .  S
O4060     Mg4102   2.174       .  S
O4060     Mg4085   2.137       .  S
O4060      C4081   1.232       .  S
O4061      C4092   1.267       .  A
O4061     Mg4085   2.291       .  S
C4062      O4064   1.272       .  A
C4062      O4076   1.273       .  A
O4063      C4091   1.267       .  A
O4063     Mg4065   2.297       .  S
O4064     Mg4096   2.270       .  S
Mg4065     O4071   2.165       .  S
Mg4065     O4079   2.297       .  S
Mg4065     O4067   2.282       .  S
C4066      O4104   1.276       .  A
C4066      O4072   1.271       .  A
O4067      C4074   1.273       .  A
H4068      C4081   1.081       .  S
C4069      O4083   1.232       .  S
C4069      O4084   1.266       .  A
C4069      H4094   1.081       .  S
O4070      C4093   1.269       .  A
O4071     Mg4085   2.192       .  S
O4072     Mg4102   2.281       .  S
C4073      O4086   1.270       .  A
C4073      O4078   1.272       .  A
C4074      O4101   1.270       .  A
Mg4075     O4082   2.174       .  S
Mg4075     O4083   2.176       .  S
Mg4075     O4076   2.281       .  S
Mg4075     O4077   2.286       .  S
Mg4075     O4104   2.297       .  S
O4077      C4081   1.265       .  A
O4078     Mg4085   2.283       .  S
O4079      C4098   1.275       .  A
O4080      C4100   1.274       .  A
O4080     Mg4096   2.295       .  S
O4082     Mg4096   2.193       .  S
O4082      C4093   1.234       .  S
O4083     Mg4102   2.146       .  S
O4084     Mg4096   2.291       .  S
Mg4085     O4101   2.255       .  S
O4086     Mg4102   2.265       .  S
H4087      C4092   1.081       .  S
O4088     Mg4096   2.155       .  S
O4088      C4091   1.233       .  S
H4089      C4091   1.081       .  S
H4090      C4093   1.081       .  S
O4095     Mg4102   2.292       .  S
C4098      O4103   1.271       .  A
O4099      C4100   1.267       .  A
C4105      H4112   1.083       .  S
C4105      C4106   1.409       .  A
C4105      C4110   1.405       .  A
C4106      C4107   1.418       .  A
C4107      C4108   1.409       .  A
C4107      N4114   1.438       .  S
C4108      H4113   1.084       .  S
C4108      C4109   1.402       .  A
C4109      C4110   1.409       .  A
C4110      N4111   1.439       .  S
N4111      H4115   1.046       .  S
N4111      H4116   1.044       .  S
N4114      H4117   1.046       .  S
N4114      H4118   1.046       .  S
C4119      H4126   1.084       .  S
C4119      C4120   1.408       .  A
C4119      C4124   1.404       .  A
C4120      C4121   1.423       .  A
C4121      C4122   1.394       .  A
C4121      N4128   1.431       .  S
C4122      H4127   1.084       .  S
C4122      C4123   1.395       .  A
C4123      C4124   1.405       .  A
C4124      N4125   1.432       .  S
N4125      H4129   1.046       .  S
N4125      H4130   1.045       .  S
N4128      H4131   1.045       .  S
N4128      H4132   1.045       .  S
C4133      H4140   1.084       .  S
C4133      C4134   1.406   1_455  A
C4133      C4138   1.407       .  A
C4134      C4135   1.415       .  A
C4135      C4136   1.401       .  A
C4135      N4142   1.433       .  S
C4136      H4141   1.084       .  S
C4136      C4137   1.401       .  A
C4137      C4138   1.420   1_655  A
C4138      N4139   1.437       .  S
N4139      H4143   1.045       .  S
N4139      H4144   1.043       .  S
N4142      H4145   1.046       .  S
N4142      H4146   1.046       .  S
C4147      H4154   1.084       .  S
C4147      C4148   1.399       .  A
C4147      C4152   1.397       .  A
C4148      C4149   1.407       .  A
C4149      C4150   1.405       .  A
C4149      N4156   1.438       .  S
C4150      H4155   1.083   1_565  S
C4150      C4151   1.409   1_565  A
C4151      C4152   1.421   1_545  A
N4153      H4158   1.046       .  S
N4156      H4159   1.046       .  S
N4156      H4160   1.046       .  S
C4161      H4168   1.083       .  S
C4161      C4162   1.401       .  A
C4161      C4166   1.408       .  A
C4162      C4163   1.409       .  A
C4163      C4164   1.407       .  A
C4163      N4170   1.438       .  S
C4164      H4169   1.083       .  S
C4164      C4165   1.408       .  A
C4165      C4166   1.417       .  A
C4166      N4167   1.432       .  S
N4167      H4171   1.046       .  S
N4167      H4172   1.046       .  S
C4175      H4182   1.084       .  S
C4175      C4176   1.409       .  A
C4175      C4180   1.401       .  A
C4176      C4177   1.417       .  A
C4177      C4178   1.400   1_655  A
C4177      N4184   1.433   1_655  S
C4178      H4183   1.084       .  S
C4178      C4179   1.404   1_455  A
C4179      C4180   1.414       .  A
C4180      N4181   1.439       .  S
N4181      H4185   1.046       .  S
N4181      H4186   1.042       .  S
N4184      H4187   1.046       .  S
N4184      H4188   1.044       .  S
C4189      H4196   1.084       .  S
C4189      C4190   1.401       .  A
C4189      C4194   1.406       .  A
C4190      C4191   1.404       .  A
C4191      C4192   1.402       .  A
C4191      N4198   1.438       .  S
C4192      C4193   1.409       .  A
C4193      C4194   1.415       .  A
C4194      N4195   1.437       .  S
N4195      H4199   1.046       .  S
N4195      H4200   1.046       .  S
N4198      H4201   1.042       .  S
C4203      H4210   1.084       .  S
C4203      C4204   1.409       .  A
C4203      C4208   1.408       .  A
C4205      N4212   1.432   1_455  S
C4206      H4211   1.083       .  S
C4206      C4207   1.405       .  A
C4207      C4208   1.417       .  A
C4208      N4209   1.438       .  S
N4209      H4213   1.046       .  S
N4209      H4214   1.043       .  S
N4212      H4215   1.046       .  S
N4212      H4216   1.046   1_655  S
C4217      H4224   1.084       .  S
C4217      C4218   1.405       .  A
C4217      C4222   1.403       .  A
C4219      N4226   1.439       .  S
C4220      H4225   1.083       .  S
C4220      C4221   1.402       .  A
C4221      C4222   1.417       .  A
C4222      N4223   1.438       .  S
N4223      H4227   1.045       .  S
N4223      H4228   1.043       .  S
N4226      H4229   1.046       .  S
N4226      H4230   1.046       .  S
C4231      H4238   1.083       .  S
C4231      C4232   1.409       .  A
C4231      C4236   1.400       .  A
C4232      C4233   1.418       .  A
C4233      C4234   1.402       .  A
C4233      N4240   1.438       .  S
C4234      H4239   1.084       .  S
C4234      C4235   1.398       .  A
C4235      C4236   1.405       .  A
C4236      N4237   1.438       .  S
N4237      H4241   1.046       .  S
N4237      H4242   1.045       .  S
N4240      H4243   1.046       .  S
N4240      H4244   1.046       .  S
C4245      H4252   1.084       .  S
C4245      C4246   1.410       .  A
C4245      C4250   1.401       .  A
C4246      C4247   1.414       .  A
C4247      C4248   1.406       .  A
C4247      N4254   1.432       .  S
C4248      H4253   1.084       .  S
C4248      C4249   1.403       .  A
C4249      C4250   1.415       .  A
C4250      N4251   1.439       .  S
N4251      H4255   1.046       .  S
N4251      H4256   1.043       .  S
N4254      H4257   1.046       .  S
N4254      H4258   1.046       .  S
C4259      H4266   1.084       .  S
C4259      C4260   1.406       .  A
C4259      C4264   1.399       .  A
C4260      C4261   1.419       .  A
C4261      C4262   1.405       .  A
C4261      N4268   1.438       .  S
C4262      H4267   1.084       .  S
C4262      C4263   1.399       .  A
C4263      C4264   1.414       .  A
C4264      N4265   1.439       .  S
N4265      H4269   1.046       .  S
N4265      H4270   1.043       .  S
N4268      H4271   1.046       .  S
N4268      H4272   1.046       .  S
C4273      H4280   1.084       .  S
C4273      C4274   1.408       .  A
C4273      C4278   1.404       .  A
C4274      C4275   1.424       .  A
C4275      C4276   1.402       .  A
C4276      H4281   1.084       .  S
C4276      C4277   1.401       .  A
C4277      C4278   1.406       .  A
C4278      N4279   1.432       .  S
N4279      H4283   1.046       .  S
N4279      H4284   1.045       .  S
N4282      H4285   1.045       .  S
N4282      H4286   1.046       .  S
C4287      H4294   1.084       .  S
C4287      C4288   1.410       .  A
C4287      C4292   1.408       .  A
C4288      C4289   1.415       .  A
C4289      C4290   1.409       .  A
C4289      N4296   1.432       .  S
C4290      H4295   1.084       .  S
C4290      C4291   1.403       .  A
C4291      C4292   1.417       .  A
C4292      N4293   1.438       .  S
N4293      H4297   1.045       .  S
N4293      H4298   1.043       .  S
N4296      H4299   1.046       .  S
N4296      H4300   1.046       .  S
C4301      H4308   1.084       .  S
C4301      C4302   1.405       .  A
C4301      C4306   1.402       .  A
C4302      C4303   1.408       .  A
C4303      C4304   1.398       .  A
C4303      N4310   1.432       .  S
C4304      H4309   1.084       .  S
C4304      C4305   1.402       .  A
C4305      C4306   1.417       .  A
C4306      N4307   1.439       .  S
N4307      H4311   1.045       .  S
N4307      H4312   1.042       .  S
N4310      H4313   1.044       .  S
N4310      H4314   1.045       .  S
C4315      H4322   1.084       .  S
C4315      C4316   1.396       .  A
C4315      C4320   1.401       .  A
C4316      C4317   1.405       .  A
C4317      C4318   1.401       .  A
C4317      N4324   1.438       .  S
C4318      H4323   1.083       .  S
C4318      C4319   1.408       .  A
C4319      C4320   1.418       .  A
C4320      N4321   1.437       .  S
N4321      H4325   1.046       .  S
N4321      H4326   1.045       .  S
N4324      H4327   1.045       .  S
N4324      H4328   1.046       .  S
C4329      H4336   1.084       .  S
C4329      C4330   1.409       .  A
C4329      C4334   1.403       .  A
C4330      C4331   1.418       .  A
C4331      C4332   1.411       .  A
C4331      N4338   1.438       .  S
C4332      H4337   1.084       .  S
C4332      C4333   1.404       .  A
C4333      C4334   1.416       .  A
C4334      N4335   1.438       .  S
N4335      H4339   1.045       .  S
N4335      H4340   1.043       .  S
N4338      H4341   1.046       .  S
N4338      H4342   1.046       .  S
C4343      H4350   1.084       .  S
C4343      C4344   1.408       .  A
C4343      C4348   1.397       .  A
C4344      C4345   1.413       .  A
C4345      C4346   1.402       .  A
C4345      N4352   1.432       .  S
C4346      H4351   1.084       .  S
C4346      C4347   1.401       .  A
C4347      C4348   1.401       .  A
C4348      N4349   1.432       .  S
N4349      H4354   1.045       .  S
N4352      H4355   1.046       .  S
N4352      H4356   1.046       .  S
C4357      H4364   1.083       .  S
C4357      C4358   1.402       .  A
C4357      C4362   1.413       .  A
C4358      C4359   1.411       .  A
C4359      C4360   1.403       .  A
C4359      N4366   1.432       .  S
C4360      H4365   1.083       .  S
C4360      C4361   1.410       .  A
C4361      C4362   1.423       .  A
C4362      N4363   1.438       .  S
N4363      H4367   1.046       .  S
N4363      H4368   1.046       .  S
N4366      H4369   1.045       .  S
N4366      H4370   1.045       .  S
C4371      H4378   1.084       .  S
C4371      C4372   1.396       .  A
C4371      C4376   1.403       .  A
C4372      C4373   1.405       .  A
C4373      C4374   1.403       .  A
C4373      N4380   1.438       .  S
C4374      H4379   1.083       .  S
C4374      C4375   1.407       .  A
C4375      C4376   1.421       .  A
C4376      N4377   1.438       .  S
N4377      H4381   1.046       .  S
N4377      H4382   1.046       .  S
N4380      H4383   1.045       .  S
N4380      H4384   1.046       .  S
C4385      H4392   1.083       .  S
C4385      C4386   1.407   1_545  A
C4385      C4390   1.409       .  A
C4386      C4387   1.425       .  A
C4387      C4388   1.398       .  A
C4387      N4394   1.433       .  S
C4388      H4393   1.084       .  S
C4388      C4389   1.399       .  A
C4389      C4390   1.408   1_565  A
C4390      N4391   1.431       .  S
N4391      H4395   1.046       .  S
N4391      H4396   1.045       .  S
N4394      H4397   1.045       .  S
N4394      H4398   1.045       .  S
C4399      H4406   1.083       .  S
C4399      C4400   1.409       .  A
C4399      C4404   1.399       .  A
C4400      C4401   1.409       .  A
C4401      C4402   1.400       .  A
C4401      N4408   1.432       .  S
C4402      H4407   1.083       .  S
C4402      C4403   1.402       .  A
C4403      C4404   1.404       .  A
C4404      N4405   1.439       .  S
N4405      H4409   1.046       .  S
N4405      H4410   1.045       .  S
N4408      H4411   1.045       .  S
N4408      H4412   1.046       .  S
C4413      H4420   1.083       .  S
C4413      C4414   1.413       .  A
C4413      C4418   1.401       .  A
C4414      C4415   1.416       .  A
C4415      C4416   1.404       .  A
C4415      N4422   1.438       .  S
C4416      H4421   1.083       .  S
C4416      C4417   1.400       .  A
C4417      C4418   1.402       .  A
C4418      N4419   1.438       .  S
N4419      H4423   1.046       .  S
N4419      H4424   1.045       .  S
N4422      H4425   1.046       .  S
N4422      H4426   1.046       .  S
C4427      H4434   1.083       .  S
C4427      C4428   1.411       .  A
C4427      C4432   1.403       .  A
C4428      C4429   1.419       .  A
C4430      H4435   1.084       .  S
C4431      C4432   1.414       .  A
C4432      N4433   1.440       .  S
N4433      H4437   1.046       .  S
N4433      H4438   1.043       .  S
N4436      H4439   1.046       .  S
N4436      H4440   1.046       .  S
C4441      H4448   1.084       .  S
C4441      C4442   1.408       .  A
C4441      C4446   1.403       .  A
C4442      C4443   1.423       .  A
C4443      C4444   1.394       .  A
C4443      N4450   1.433       .  S
C4444      H4449   1.083   1_565  S
C4444      C4445   1.398       .  A
C4445      C4446   1.406       .  A
C4446      N4447   1.432       .  S
N4447      H4451   1.046       .  S
N4447      H4452   1.046       .  S
N4450      H4453   1.044   1_565  S
N4450      H4454   1.045       .  S
C4455      H4462   1.083       .  S
C4455      C4456   1.401       .  A
C4455      C4460   1.408       .  A
C4456      C4457   1.418       .  A
C4457      C4458   1.408       .  A
C4457      N4464   1.438       .  S
C4458      H4463   1.083   1_655  S
C4458      C4459   1.408       .  A
C4459      C4460   1.422       .  A
C4460      N4461   1.439       .  S
N4461      H4465   1.046       .  S
N4461      H4466   1.046       .  S
N4464      H4467   1.043       .  S
N4464      H4468   1.045   1_655  S
C4469      H4476   1.084       .  S
C4469      C4470   1.403       .  A
C4469      C4474   1.408       .  A
C4470      C4471   1.412       .  A
C4471      C4472   1.411       .  A
C4471      N4478   1.438       .  S
C4472      H4477   1.083       .  S
C4472      C4473   1.409       .  A
C4473      C4474   1.415       .  A
C4474      N4475   1.437   1_655  S
N4475      H4479   1.046       .  S
N4475      H4480   1.046       .  S
N4478      H4481   1.042       .  S
N4478      H4482   1.046       .  S
C4483      H4490   1.084       .  S
C4483      C4484   1.405       .  A
C4483      C4488   1.402       .  A
C4484      C4485   1.410       .  A
C4485      C4486   1.410       .  A
C4485      N4492   1.431       .  S
C4486      H4491   1.084       .  S
C4486      C4487   1.408       .  A
C4487      C4488   1.411       .  A
C4488      N4489   1.432       .  S
N4492      H4495   1.045       .  S
N4492      H4496   1.046       .  S
C4497      H4504   1.084       .  S
C4497      C4498   1.412       .  A
C4497      C4502   1.401       .  A
C4498      C4499   1.419       .  A
C4499      C4500   1.403       .  A
C4500      H4505   1.084       .  S
C4500      C4501   1.401       .  A
C4501      C4502   1.410       .  A
C4502      N4503   1.433       .  S
N4503      H4507   1.044       .  S
N4503      H4508   1.044       .  S
N4506      H4509   1.046       .  S
N4506      H4510   1.046       .  S
C4511      H4518   1.082       .  S
C4511      C4512   1.401       .  A
C4511      C4516   1.394       .  A
C4512      C4513   1.409       .  A
C4513      C4514   1.401       .  A
C4513      N4520   1.440       .  S
C4514      H4519   1.084       .  S
C4514      C4515   1.404       .  A
C4515      C4516   1.405       .  A
C4516      N4517   1.433       .  S
N4517      H4521   1.045       .  S
N4517      H4522   1.045       .  S
N4520      H4523   1.042       .  S
N4520      H4524   1.046       .  S
C4525      H4532   1.083       .  S
C4525      C4526   1.409       .  A
C4525      C4530   1.403       .  A
C4526      C4527   1.413       .  A
C4527      C4528   1.405       .  A
C4527      N4534   1.432       .  S
C4528      H4533   1.084       .  S
C4528      C4529   1.402       .  A
C4529      C4530   1.407       .  A
C4530      N4531   1.437       .  S
N4531      H4535   1.046       .  S
N4531      H4536   1.040       .  S
N4534      H4537   1.045       .  S
N4534      H4538   1.046       .  S
C4539      H4546   1.084       .  S
C4539      C4540   1.403       .  A
C4539      C4544   1.407       .  A
C4540      C4541   1.413       .  A
C4541      C4542   1.399       .  A
C4541      N4548   1.439       .  S
C4542      C4543   1.408       .  A
C4543      C4544   1.415       .  A
C4544      N4545   1.437       .  S
N4545      H4549   1.046       .  S
N4548      H4551   1.042       .  S
N4548      H4552   1.046       .  S
C4553      H4560   1.084       .  S
C4553      C4554   1.398       .  A
C4553      C4558   1.399       .  A
C4554      C4555   1.409       .  A
C4555      C4556   1.408       .  A
C4556      H4561   1.083       .  S
C4556      C4557   1.409       .  A
C4557      C4558   1.423       .  A
C4558      N4559   1.432       .  S
N4559      H4563   1.046       .  S
N4559      H4564   1.044       .  S
N4562      H4565   1.046       .  S
N4562      H4566   1.045       .  S
C4567      H4574   1.083       .  S
C4567      C4568   1.409       .  A
C4567      C4572   1.406       .  A
C4568      C4569   1.416       .  A
C4569      C4570   1.408       .  A
C4569      N4576   1.437       .  S
C4570      H4575   1.083       .  S
C4570      C4571   1.401       .  A
C4571      C4572   1.407       .  A
C4572      N4573   1.437       .  S
N4573      H4577   1.046       .  S
N4573      H4578   1.045       .  S
N4576      H4579   1.046       .  S
N4576      H4580   1.046       .  S
C4581      H4588   1.084   1_655  S
C4581      C4582   1.405       .  A
C4581      C4586   1.402       .  A
C4582      C4583   1.422       .  A
C4583      C4584   1.402       .  A
C4584      H4589   1.084       .  S
C4584      C4585   1.401       .  A
C4585      C4586   1.407       .  A
C4586      N4587   1.431       .  S
N4587      H4591   1.045   1_655  S
N4587      H4592   1.046       .  S
N4590      H4593   1.045       .  S
N4590      H4594   1.045       .  S
C4595      H4602   1.084       .  S
C4595      C4596   1.399       .  A
C4595      C4600   1.408       .  A
C4596      C4597   1.409       .  A
C4597      C4598   1.405       .  A
C4597      N4604   1.432       .  S
C4598      H4603   1.084       .  S
C4598      C4599   1.406       .  A
C4599      C4600   1.422       .  A
C4600      N4601   1.439       .  S
N4601      H4605   1.046       .  S
N4601      H4606   1.046       .  S
N4604      H4607   1.045       .  S
N4604      H4608   1.046       .  S
