geometry optimzed in LAMMPS
_audit_creation_date              2020-11-30 
_audit_creation_method            'lammps2cif' 
_symmetry_space_group_name_H-M    'P1' 
_symmetry_Int_Tables_number       1 
_symmetry_cell_setting            triclinic 
loop_ 
_symmetry_equiv_pos_as_xyz 
  x,y,z 
_cell_length_a                    39.72832838 
_cell_length_b                    40.74515497801653 
_cell_length_c                    39.32437147572156 
_cell_angle_alpha                 91.53095011095996 
_cell_angle_beta                  89.43778834413222 
_cell_angle_gamma                 86.72224198506898 
loop_ 
_atom_site_label 
_atom_site_type_symbol 
_atom_site_fract_x 
_atom_site_fract_y 
_atom_site_fract_z 
_atom_site_charge 
O1          O  0.78202117  0.72295347  0.67963778    -0.80800
O2          O  0.77390770  0.72322075  0.82590547    -0.65500
O3          O  0.74413438  0.71706323  0.73598765    -1.12100
C4          C  0.72530250  0.82975933  0.74668817     1.06100
O5          O  0.72669537  0.75196799  0.84086077    -0.78700
O6          O  0.68314808  0.76412108  0.78767171    -0.66200
Ni7        Ni  0.76740754  0.68759250  0.70537577     1.34900
C8          C  0.67441132  0.76440491  0.75668860     0.84900
O9          O  0.76610441  0.67180556  0.78432337    -0.79200
O10         O  0.75430940  0.65209725  0.73210757    -0.89500
C11         C  0.75264113  0.73358806  0.84841837     0.84400
O12         O  0.81099471  0.68486505  0.72494277    -0.67700
O13         O  0.71358336  0.82158784  0.77555240    -0.87000
C14         C  0.82402553  0.70569565  0.74440132     0.85300
C15         C  0.75947212  0.64831346  0.76381109     1.06800
H16         H  0.77426520  0.77535946  0.77992585     0.38600
O17         O  0.75342087  0.76491338  0.77645940    -1.09600
O18         O  0.69579331  0.76634214  0.73268842    -0.66300
Ni19       Ni  0.74410748  0.76329401  0.72925333     1.26300
O20         O  0.80626437  0.72269660  0.76624361    -0.66500
O21         O  0.74231066  0.80984066  0.72651492    -0.78800
C22         C  0.76106431  0.74121555  0.66393980     0.84600
O23         O  0.73894261  0.75895446  0.68070883    -0.66000
Ni24       Ni  0.72075114  0.78548450  0.80636003     1.27400
Ni25       Ni  0.76005201  0.71879276  0.78063668     1.26100
H26         H  0.72114581  0.71052489  0.73696815     0.39200
O27         O  0.33417508  0.73513701  0.77653807    -0.80800
O28         O  0.18001806  0.71716149  0.76574567    -0.65500
O29         O  0.27430068  0.71599734  0.74846832    -1.12100
C30         C  0.25265265  0.83239705  0.74636890     1.06100
O31         O  0.17266184  0.75285426  0.72461045    -0.78700
O32         O  0.21599501  0.78931777  0.69319638    -0.66200
Ni33       Ni  0.30639435  0.69759817  0.77828610     1.34900
C34         C  0.23782327  0.76931336  0.67914654     0.84900
O35         O  0.22955649  0.66762030  0.75967418    -0.79200
O36         O  0.28154721  0.65844293  0.78084751    -0.89500
C37         C  0.16100771  0.73238277  0.74466077     0.84400
O38         O  0.28640921  0.71434582  0.82008405    -0.67700
O39         O  0.22164342  0.82727319  0.75137007    -0.87000
C40         C  0.25583406  0.71514693  0.83002866     0.85300
C41         C  0.25306861  0.64832653  0.77163308     1.06800
H42         H  0.23077021  0.76990184  0.78361354     0.38600
O43         O  0.23032516  0.76217039  0.76019471    -1.09600
O44         O  0.26134981  0.75503766  0.69607647    -0.66300
Ni45       Ni  0.27478037  0.76217714  0.74300589     1.26300
O46         O  0.23170051  0.71465390  0.80890790    -0.66500
O47         O  0.27484170  0.80947100  0.73835830    -0.78800
C48         C  0.34242711  0.75051523  0.75006939     0.84600
O49         O  0.32031453  0.75912245  0.72861101    -0.66000
Ni50       Ni  0.19758385  0.78950377  0.73848465     1.27400
Ni51       Ni  0.22799327  0.71513539  0.75958850     1.26100
H52         H  0.27806265  0.70485207  0.72670980     0.39200
N53         N  0.79121288  0.72471280  0.49451367    -0.03300
C54         C  0.76660521  0.72664331  0.51882013    -0.00800
C55         C  0.73517598  0.72433798  0.50480340    -0.23600
C56         C  0.74016367  0.72154506  0.47046627    -0.23800
C57         C  0.77451257  0.72228043  0.46466683    -0.00900
H58         H  0.71113217  0.72608983  0.51810610     0.12900
H59         H  0.72057430  0.72221796  0.45151004     0.13000
N60         N  0.99518789  0.71275684  0.72443904    -0.03300
C61         C  0.02144628  0.70525541  0.74530951    -0.00800
C62         C  0.01019602  0.69832554  0.77750159    -0.23600
C63         C  0.97581808  0.70049813  0.77649540    -0.23800
C64         C  0.96722409  0.70909774  0.74386490    -0.00900
H65         H  0.02539525  0.69337089  0.79967242     0.12900
H66         H  0.95874372  0.69645880  0.79739255     0.13000
N67         N  0.00011092  0.70184089  0.30245807    -0.03300
C68         C  0.02684910  0.68945353  0.28309114    -0.00800
C69         C  0.01830253  0.66255767  0.26368520    -0.23600
C70         C  0.98506637  0.65853328  0.27015038    -0.23800
C71         C  0.97398957  0.68343291  0.29283434    -0.00900
H72         H  0.03393238  0.64877915  0.24497576     0.12900
H73         H  0.96942519  0.64228232  0.25590679     0.13000
O74         O  0.95477915  0.69991343  0.51030095    -0.74300
O75         O  0.05242733  0.70334459  0.51182088    -0.74300
O76         O  0.00254160  0.69991422  0.55951034    -0.74400
O77         O  0.00467533  0.70126426  0.46300349    -0.74400
O78         O  0.99960357  0.75591560  0.46385273    -0.74400
O79         O  0.99716919  0.75439648  0.56329177    -0.74300
O80         O  0.04633203  0.75792428  0.51450253    -0.74300
O81         O  0.95017093  0.75451758  0.51266856    -0.74400
Ni82       Ni  0.00375388  0.69926192  0.51113126     1.25400
Ni83       Ni  0.99808737  0.75766916  0.51368728     1.25400
C84         C  0.93631358  0.72697488  0.51101452     0.87900
C85         C  0.06547335  0.73157571  0.51351984     0.87800
C86         C  0.99999847  0.72631805  0.57774442     0.87800
C87         C  0.00318842  0.72821621  0.44719728     0.88000
N88         N  0.21066767  0.74420818  0.50710627    -0.03300
C89         C  0.23294496  0.74642095  0.53339605    -0.00800
C90         C  0.26547663  0.74743635  0.52104867    -0.23600
C91         C  0.26369948  0.74653623  0.48633009    -0.23800
C92         C  0.23009513  0.74510281  0.47813822    -0.00900
H93         H  0.28798872  0.75030857  0.53586722     0.12900
H94         H  0.28457096  0.74865567  0.46877583     0.13000
O95         O  0.16336694  0.76444685  0.27915371    -0.80800
O96         O  0.31564974  0.77147677  0.28957177    -0.65500
O97         O  0.22753338  0.77477870  0.25332864    -1.12100
C98         C  0.25685222  0.66282685  0.22975848     1.06100
O99         O  0.33440590  0.75308218  0.23920456    -0.78700
O100        O  0.29033379  0.73039976  0.18984666    -0.66200
Ni101      Ni  0.19218471  0.80051738  0.27630858     1.34900
C102        C  0.26035908  0.72965090  0.17867719     0.84900
O103        O  0.27017140  0.82012224  0.28474806    -0.79200
O104        O  0.21764890  0.83950921  0.27474722    -0.89500
C105        C  0.33933513  0.76801602  0.26768238     0.84400
O106        O  0.20482856  0.79232313  0.32260115    -0.67700
O107        O  0.28585296  0.67392222  0.22420854    -0.87000
C108        C  0.22820006  0.77400034  0.33530425     0.85300
C109        C  0.24845578  0.84377290  0.28136050     1.06800
H110        H  0.27530377  0.71671298  0.28178026     0.38600
O111        O  0.27274139  0.72924118  0.26136562    -1.09600
O112        O  0.23485156  0.72944702  0.19867480    -0.66300
Ni113      Ni  0.22748536  0.72761801  0.24762513     1.26300
O114        O  0.25453051  0.76393245  0.31821853    -0.66500
O115        O  0.23156612  0.68062098  0.24188480    -0.78800
C116        C  0.15792052  0.74003851  0.25952833     0.84600
O117        O  0.18012249  0.72732628  0.23872729    -0.66000
Ni118      Ni  0.30830735  0.71414407  0.23181408     1.27400
Ni119      Ni  0.27105058  0.77433847  0.27318964     1.26100
H120        H  0.22955329  0.78395991  0.23103616     0.39200
O121        O  0.66321417  0.75730362  0.24464322    -0.80800
O122        O  0.81966766  0.72411806  0.24421442    -0.65500
O123        O  0.72620947  0.73241084  0.26614304    -1.12100
C124        C  0.74633265  0.84609352  0.28056028     1.06100
O125        O  0.83182993  0.76000579  0.28536083    -0.78700
O126        O  0.78822723  0.79628512  0.32331338    -0.66200
Ni127      Ni  0.69250686  0.71764162  0.23732369     1.34900
C128        C  0.76797817  0.77678061  0.33560883     0.84900
O129        O  0.77108389  0.68068037  0.24944412    -0.79200
O130        O  0.71856284  0.67659335  0.22921664    -0.89500
C131        C  0.83969835  0.73512238  0.26627776     0.84400
O132        O  0.70994941  0.73423581  0.19624376    -0.67700
O133        O  0.77686370  0.83876298  0.27167893    -0.87000
C134        C  0.73999245  0.73050723  0.18489973     0.85300
C135        C  0.74802320  0.66411813  0.23579684     1.06800
H136        H  0.76745518  0.78284247  0.23278184     0.38600
O137        O  0.76935556  0.77464656  0.25555047    -1.09600
O138        O  0.74258498  0.76723421  0.31948288    -0.66300
Ni139      Ni  0.72559060  0.77813139  0.27543727     1.26300
O140        O  0.76538459  0.72762491  0.20437292    -0.66500
O141        O  0.72519783  0.82443429  0.28562240    -0.78800
C142        C  0.65724057  0.77369302  0.27244843     0.84600
O143        O  0.68100916  0.77895856  0.29285245    -0.66000
Ni144      Ni  0.80326739  0.79850070  0.27733027     1.27400
Ni145      Ni  0.77205102  0.72749530  0.25290317     1.26100
H146        H  0.72372000  0.72095237  0.28714778     0.39200
N147        N  0.77036543  0.69961940  0.01482530    -0.03300
C148        C  0.78041518  0.71755580  0.98834679    -0.00800
C149        C  0.78874426  0.74851174  0.99909700    -0.23600
C150        C  0.78373991  0.75010021  0.03350171    -0.23800
C151        C  0.77262822  0.72002011  0.04262273    -0.00900
H152        H  0.79537086  0.76852647  0.98323817     0.12900
H153        H  0.78634874  0.77145445  0.05003226     0.13000
N154        N  0.78202888  0.48656757  0.78915484    -0.03300
C155        C  0.78242386  0.51330634  0.76965818    -0.00800
C156        C  0.79232106  0.50475721  0.73671047    -0.23600
C157        C  0.79708566  0.47125073  0.73541559    -0.23800
C158        C  0.79003988  0.46063125  0.76764224    -0.00900
H159        H  0.79345298  0.52095385  0.71540801     0.12900
H160        H  0.80182680  0.45604511  0.71268625     0.13000
N161        N  0.77476121  0.28884883  0.98629296    -0.03300
C162        C  0.78152349  0.27001291  0.95774674    -0.00800
C163        C  0.79010818  0.23791985  0.96580018    -0.23600
C164        C  0.78766350  0.23650358  0.00042257    -0.23800
C165        C  0.77770290  0.26781728  0.01241165    -0.00900
H166        H  0.79463963  0.21723458  0.94818472     0.12900
H167        H  0.78969236  0.21437007  0.01506606     0.13000
O168        O  0.73456533  0.49562205  0.04932446    -0.74300
O169        O  0.73862776  0.49674863  0.95143630    -0.74300
O170        O  0.73560874  0.44881120  0.99812086    -0.74400
O171        O  0.73766422  0.54386098  0.00289792    -0.74400
O172        O  0.79357232  0.53902486  0.00430483    -0.74400
O173        O  0.79161165  0.44501876  0.99973819    -0.74300
O174        O  0.79454539  0.49235696  0.95318189    -0.74300
O175        O  0.79045887  0.49139953  0.05070063    -0.74400
Ni176      Ni  0.73458779  0.49645461  0.00036989     1.25400
Ni177      Ni  0.79443890  0.49184069  0.00204221     1.25400
C178        C  0.76197058  0.49351387  0.06635676     0.87900
C179        C  0.76727055  0.49412336  0.93595932     0.87800
C180        C  0.76347697  0.43118715  0.99788131     0.87800
C181        C  0.76618020  0.55721840  0.00459689     0.88000
N182        N  0.75193783  0.49994550  0.21325561    -0.03300
C183        C  0.76041649  0.52524024  0.23393485    -0.00800
C184        C  0.75920018  0.51634411  0.26759874    -0.23600
C185        C  0.75039072  0.48433235  0.26763798    -0.23800
C186        C  0.74589813  0.47492549  0.23406543    -0.00900
H187        H  0.76388446  0.53163454  0.28978321     0.12900
H188        H  0.74861302  0.46917882  0.28969808     0.13000
O189        O  0.71990297  0.17041067  0.23423488    -0.80800
O190        O  0.72552500  0.31736809  0.22126013    -0.65500
O191        O  0.75374172  0.22683704  0.22115017    -1.12100
C192        C  0.76948494  0.25186855  0.33726422     1.06100
O193        O  0.77598453  0.32539343  0.24158700    -0.78700
O194        O  0.81774044  0.27821459  0.26825385    -0.66200
Ni195      Ni  0.72984053  0.19586925  0.19536511     1.34900
C196        C  0.82700960  0.24797482  0.26847104     0.84900
O197        O  0.73200201  0.27216760  0.17155982    -0.79200
O198        O  0.73866187  0.21917394  0.15465070    -0.89500
C199        C  0.74897476  0.33634245  0.22772212     0.84400
O200        O  0.68498494  0.21569982  0.19912989    -0.67700
O201        O  0.77852730  0.27898714  0.32534089    -0.87000
C202        C  0.67254081  0.24011879  0.21663302     0.85300
C203        C  0.73683981  0.24983000  0.14860298     1.06800
H204        H  0.72468901  0.27649600  0.27907001     0.38600
O205        O  0.74575271  0.27129461  0.26697393    -1.09600
O206        O  0.80558848  0.22568955  0.26857331    -0.66300
Ni207      Ni  0.75618817  0.22573813  0.26986995     1.26300
O208        O  0.69078121  0.26265453  0.22832414    -0.66500
O209        O  0.75853898  0.22853179  0.31864182    -0.78800
C210        C  0.73900784  0.16109126  0.25830038     0.84600
O211        O  0.76122869  0.17900299  0.27088989    -0.66000
Ni212      Ni  0.77680093  0.30107145  0.28299086     1.27400
Ni213      Ni  0.73794670  0.27167833  0.21973706     1.26100
H214        H  0.77652272  0.22542375  0.21214442     0.39200
O215        O  0.66372818  0.25214999  0.77376905    -0.80800
O216        O  0.81861629  0.25618596  0.74622717    -0.65500
O217        O  0.72405184  0.26006680  0.73815134    -1.12100
C218        C  0.73084208  0.14775515  0.72126824     1.06100
O219        O  0.83331636  0.20354324  0.73230215    -0.78700
O220        O  0.78595319  0.20847191  0.68471747    -0.66200
Ni221      Ni  0.69572583  0.28566516  0.76883704     1.34900
C222        C  0.75726350  0.21648477  0.67272233     0.84900
O223        O  0.77301409  0.30487588  0.73954577    -0.79200
O224        O  0.72486543  0.32141503  0.76676184    -0.89500
C225        C  0.84022912  0.23287401  0.73930208     0.84400
O226        O  0.71711892  0.27170022  0.80932962    -0.67700
O227        O  0.75878610  0.15348144  0.70761658    -0.87000
C228        C  0.74833869  0.26968168  0.81603403     0.85300
C229        C  0.75382685  0.32698569  0.75457011     1.06800
H230        H  0.76908588  0.20618376  0.77344402     0.38600
O231        O  0.76657693  0.21182761  0.74985003    -1.09600
O232        O  0.72955568  0.21371392  0.68940096    -0.66300
Ni233      Ni  0.72020008  0.21430942  0.73868993     1.26300
O234        O  0.77081240  0.26561422  0.79280313    -0.66500
O235        O  0.71558236  0.16841429  0.74099470    -0.78800
C236        C  0.65503716  0.22947352  0.75335647     0.84600
O237        O  0.67393573  0.21830490  0.72934105    -0.66000
Ni238      Ni  0.79394167  0.18127926  0.72199072     1.27400
Ni239      Ni  0.77106968  0.25849052  0.74400089     1.26100
H240        H  0.71921199  0.26809919  0.71571894     0.39200
N241        N  0.69478527  0.98816357  0.70607920    -0.03300
C242        C  0.71584416  0.96124538  0.70015396    -0.00800
C243        C  0.74704355  0.96990694  0.68899438    -0.23600
C244        C  0.74537782  0.00347797  0.68792999    -0.23800
C245        C  0.71324808  0.01410438  0.69867570    -0.00900
H246        H  0.76917604  0.95364989  0.68416573     0.12900
H247        H  0.76585954  0.01868917  0.68151761     0.13000
N248        N  0.50804595  0.77576330  0.72341064    -0.03300
C249        C  0.53647915  0.75687928  0.71571823    -0.00800
C250        C  0.52896004  0.72451126  0.70977860    -0.23600
C251        C  0.49485108  0.72327329  0.71375152    -0.23800
C252        C  0.48279079  0.75483148  0.72240163    -0.00900
H253        H  0.54670655  0.70352815  0.70610137     0.12900
H254        H  0.48063556  0.70138771  0.71288834     0.13000
N255        N  0.27593884  0.99614250  0.74404492    -0.03300
C256        C  0.25638786  0.97096511  0.75166839    -0.00800
C257        C  0.22280647  0.98172922  0.75352192    -0.23600
C258        C  0.22141181  0.01463180  0.74708196    -0.23800
C259        C  0.25417019  0.02298313  0.74117825    -0.00900
H260        H  0.20155458  0.96702366  0.75853072     0.12900
H261        H  0.19887056  0.03084154  0.74669057     0.13000
O262        O  0.53764811  0.97733233  0.75850239    -0.74300
O263        O  0.44043150  0.98032660  0.76743691    -0.74300
O264        O  0.49033771  0.93161597  0.75804344    -0.74400
O265        O  0.48829470  0.02484860  0.76926683    -0.74400
O266        O  0.48407787  0.03091566  0.71330776    -0.74400
O267        O  0.48586836  0.93603246  0.70208173    -0.74300
O268        O  0.43641092  0.98550985  0.71157134    -0.74300
O269        O  0.53262815  0.98233194  0.70265398    -0.74400
Ni270      Ni  0.48927072  0.97823101  0.76523397     1.25400
Ni271      Ni  0.48447502  0.98374969  0.70539205     1.25400
C272        C  0.55121927  0.98017406  0.72900741     0.87900
C273        C  0.42219545  0.98434105  0.74088419     0.87800
C274        C  0.48934926  0.91805988  0.72836986     0.87800
C275        C  0.48599918  0.04330121  0.74357056     0.88000
N276        N  0.50551422  0.17666058  0.78498017    -0.03300
C277        C  0.53414998  0.17945202  0.80319786    -0.00800
C278        C  0.52690249  0.19728022  0.83317216    -0.23600
C279        C  0.49409814  0.20915800  0.83149535    -0.23800
C280        C  0.48201094  0.19704058  0.80125513    -0.00900
H281        H  0.54514617  0.20634360  0.85087280     0.12900
H282        H  0.48140126  0.22687331  0.84893965     0.13000
O283        O  0.34381287  0.21404293  0.72700309    -0.80800
O284        O  0.18578966  0.22033077  0.72809907    -0.65500
O285        O  0.27767105  0.23974765  0.71933525    -1.12100
C286        C  0.26480271  0.25787214  0.83945113     1.06100
O287        O  0.17654961  0.26702232  0.75722492    -0.78700
O288        O  0.22265807  0.30328173  0.78766665    -0.66200
Ni289      Ni  0.30831041  0.20947134  0.69494516     1.34900
C290        C  0.24936163  0.31363757  0.77501688     0.84900
O291        O  0.22600984  0.22413051  0.67518211    -0.79200
O292        O  0.27642497  0.20113060  0.65932950    -0.89500
C293        C  0.16645554  0.24465053  0.73729353     0.84400
O294        O  0.29664158  0.17144135  0.71814663    -0.67700
O295        O  0.23300211  0.25775176  0.83532695    -0.87000
C296        C  0.26776714  0.16194566  0.72544691     0.85300
C297        C  0.24563810  0.20935621  0.65356158     1.06800
H298        H  0.23880567  0.21295515  0.78048760     0.38600
O299        O  0.23825608  0.23428028  0.77023297    -1.09600
O300        O  0.27308874  0.29393103  0.76309741    -0.66300
Ni301      Ni  0.28314495  0.24680458  0.76745662     1.26300
O302        O  0.24111543  0.18109575  0.72577963    -0.66500
O303        O  0.28653537  0.25397165  0.81541689    -0.78800
C304        C  0.35068154  0.23389628  0.75104827     0.84600
O305        O  0.32940451  0.25529963  0.76366757    -0.66000
Ni306      Ni  0.20588428  0.26121994  0.79543224     1.27400
Ni307      Ni  0.23187799  0.22853253  0.72278693     1.26100
H308        H  0.27812405  0.26058099  0.70820640     0.39200
N309        N  0.24192750  0.70641958  0.00445420    -0.03300
C310        C  0.23536867  0.72515444  0.97666856    -0.00800
C311        C  0.23025511  0.75788228  0.98614697    -0.23600
C312        C  0.23397442  0.75992317  0.02067883    -0.23800
C313        C  0.24142361  0.72837917  0.03160922    -0.00900
H314        H  0.22610761  0.77833635  0.96939241     0.12900
H315        H  0.23268312  0.78231521  0.03619236     0.13000
N316        N  0.25107314  0.48192738  0.78158050    -0.03300
C317        C  0.24250967  0.50771273  0.76137241    -0.00800
C318        C  0.24128490  0.49719137  0.72777256    -0.23600
C319        C  0.24842976  0.46389099  0.72711763    -0.23800
C320        C  0.25472882  0.45487016  0.76023344    -0.00900
H321        H  0.23588819  0.51220443  0.70597670     0.12900
H322        H  0.24764015  0.44777810  0.70486216     0.13000
N323        N  0.30483279  0.29888051  0.99846836    -0.03300
C324        C  0.32022764  0.28447489  0.97041727    -0.00800
C325        C  0.34543108  0.26165486  0.97932133    -0.23600
C326        C  0.34564060  0.26141012  0.01403016    -0.23800
C327        C  0.32039416  0.28395656  0.02503236    -0.00900
H328        H  0.35948330  0.24442690  0.96236190     0.12900
H329        H  0.36036386  0.24446185  0.02948539     0.13000
O330        O  0.22154428  0.54559052  0.99564993    -0.74300
O331        O  0.23595439  0.45026153  0.99623526    -0.74300
O332        O  0.22909690  0.49949508  0.04424022    -0.74400
O333        O  0.22687090  0.49565234  0.94686943    -0.74400
O334        O  0.28211970  0.50083488  0.94398717    -0.74400
O335        O  0.28450260  0.50428085  0.04278851    -0.74300
O336        O  0.29114682  0.45643709  0.99365317    -0.74300
O337        O  0.27707363  0.54978390  0.99376491    -0.74400
Ni338      Ni  0.22637309  0.49766378  0.99567156     1.25400
Ni339      Ni  0.28560008  0.50309436  0.99334397     1.25400
C340        C  0.24729043  0.56344858  0.99573581     0.87900
C341        C  0.26648947  0.43784880  0.99606611     0.80400
C342        C  0.25690528  0.50223267  0.05986415     0.87800
C343        C  0.25386957  0.49685141  0.92904692     0.88000
N344        N  0.25999167  0.49723633  0.20707103    -0.03300
C345        C  0.25730575  0.52345305  0.22912504    -0.00800
C346        C  0.26340245  0.51383706  0.26200877    -0.23600
C347        C  0.26854723  0.48039488  0.26060302    -0.23800
C348        C  0.26588064  0.47075189  0.22686851    -0.00900
H349        H  0.26363499  0.52949071  0.28466782     0.12900
H350        H  0.27211262  0.46454735  0.28208479     0.13000
N351        N  0.49441017  0.82157373  0.30621997    -0.03300
C352        C  0.52171497  0.80446163  0.31850969    -0.00800
C353        C  0.51215582  0.77768913  0.33621293    -0.23600
C354        C  0.47770365  0.77822003  0.33491178    -0.23800
C355        C  0.46733187  0.80523996  0.31636670    -0.00900
H356        H  0.52859916  0.75807201  0.34587965     0.12900
H357        H  0.46214770  0.75892835  0.34322074     0.13000
N358        N  0.70886442  0.00952714  0.30393593    -0.03300
C359        C  0.72555459  0.98249870  0.31629144    -0.00800
C360        C  0.75244904  0.99107858  0.33600596    -0.23600
C361        C  0.75282960  0.02456724  0.33574181    -0.23800
C362        C  0.72586802  0.03519512  0.31626722    -0.00900
H363        H  0.77178031  0.97451994  0.34634473     0.12900
H364        H  0.77245960  0.03925651  0.34585466     0.13000
N365        N  0.29287917  0.00139217  0.30057021    -0.03300
C366        C  0.28014041  0.97520531  0.31611643    -0.00800
C367        C  0.25468287  0.98532554  0.33886512    -0.23600
C368        C  0.25097448  0.01873213  0.33736166    -0.23800
C369        C  0.27407461  0.02780883  0.31350448    -0.00900
H370        H  0.23826091  0.96975381  0.35244014     0.12900
H371        H  0.23147717  0.03444253  0.34989663     0.13000
O372        O  0.49733686  0.98295361  0.31717467    -0.74300
O373        O  0.49777340  0.07637211  0.30213989    -0.74300
O374        O  0.44959159  0.03146725  0.30841815    -0.74400
O375        O  0.54515267  0.02744931  0.31259454    -0.74400
O376        O  0.54977810  0.01827071  0.25691371    -0.74400
O377        O  0.45136181  0.01934216  0.25300441    -0.74300
O378        O  0.49964398  0.06590731  0.24650833    -0.74300
O379        O  0.50174061  0.97300354  0.26150331    -0.74400
Ni380      Ni  0.49733258  0.03004876  0.31189269     1.25400
Ni381      Ni  0.50071908  0.01901873  0.25236245     1.25400
C382        C  0.49918176  0.96242909  0.29173923     0.87900
C383        C  0.49942321  0.08668797  0.27157170     0.87800
C384        C  0.43459711  0.02324429  0.28120908     0.87800
C385        C  0.56367254  0.02212039  0.28615741     0.88000
N386        N  0.50319471  0.22745462  0.25271392    -0.03300
C387        C  0.47455111  0.24769253  0.25511384    -0.00800
C388        C  0.48276423  0.28016015  0.25375852    -0.23600
C389        C  0.51721481  0.28013019  0.25085900    -0.23800
C390        C  0.52937712  0.24768260  0.25030206    -0.00900
H391        H  0.46539556  0.30161212  0.25371671     0.12900
H392        H  0.53188046  0.30153241  0.24833469     0.13000
N393        N  0.77165913  0.25994100  0.50997295    -0.03300
C394        C  0.75266796  0.26245217  0.48157276    -0.00800
C395        C  0.71899231  0.26768236  0.48975516    -0.23600
C396        C  0.71683343  0.26834558  0.52446474    -0.23800
C397        C  0.74939687  0.26406980  0.53654944    -0.00900
H398        H  0.69809942  0.26876022  0.47228238     0.12900
H399        H  0.69357790  0.26847511  0.53897391     0.13000
N400        N  0.00188869  0.25908554  0.70666519    -0.03300
C401        C  0.97552445  0.26743953  0.72783096    -0.00800
C402        C  0.98556409  0.28376361  0.75682945    -0.23600
C403        C  0.01947373  0.28623529  0.75354189    -0.23800
C404        C  0.02862563  0.27156585  0.72250924    -0.00900
H405        H  0.97005925  0.29147172  0.77871588     0.12900
H406        H  0.03602600  0.29598401  0.77252988     0.13000
N407        N  0.99823587  0.22091490  0.28444626    -0.03300
C408        C  0.97235878  0.21616134  0.26242012    -0.00800
C409        C  0.98486200  0.21192199  0.22959428    -0.23600
C410        C  0.01917428  0.21424338  0.23115166    -0.23800
C411        C  0.02707636  0.22010671  0.26483713    -0.00900
H412        H  0.97034782  0.20894176  0.20668531     0.12900
H413        H  0.03653823  0.21296604  0.20971591     0.13000
O414        O  0.97793526  0.20383477  0.44864146    -0.74300
O415        O  0.98066316  0.20894967  0.54772039    -0.74300
O416        O  0.93050612  0.21350310  0.50021388    -0.74400
O417        O  0.02623536  0.19791548  0.49689730    -0.74400
O418        O  0.03333280  0.25155032  0.49583118    -0.74400
O419        O  0.93612672  0.26732863  0.49750257    -0.74300
O420        O  0.98543518  0.26276429  0.54423682    -0.74300
O421        O  0.98461647  0.25746755  0.44766041    -0.74400
Ni422      Ni  0.97837855  0.20412680  0.49829683     1.25400
Ni423      Ni  0.98492412  0.26162693  0.49607270     1.25400
C424        C  0.98238726  0.22998083  0.43174465     0.87900
C425        C  0.98526579  0.23710620  0.56207176     0.87800
C426        C  0.91725993  0.24291292  0.50033160     0.87800
C427        C  0.04573384  0.22176756  0.49747557     0.88000
N428        N  0.18865228  0.18740737  0.49718443    -0.03300
C429        C  0.20292949  0.17870895  0.46659330    -0.00800
C430        C  0.22910089  0.15535649  0.47006181    -0.23600
C431        C  0.23174765  0.14984974  0.50406457    -0.23800
C432        C  0.20665046  0.16960947  0.52020240    -0.00900
H433        H  0.24712700  0.14671012  0.45054281     0.12900
H434        H  0.25260141  0.13640073  0.51582053     0.13000
O435        O  0.22413823  0.32719873  0.25727861    -0.80800
O436        O  0.23334451  0.17515899  0.26598897    -0.65500
O437        O  0.25087882  0.26502948  0.27644284    -1.12100
C438        C  0.28203409  0.25355959  0.15971842     1.06100
O439        O  0.28119766  0.16464086  0.23698916    -0.78700
O440        O  0.32157484  0.20910590  0.21349630    -0.66200
Ni441      Ni  0.21927308  0.29730054  0.29503084     1.34900
C442        C  0.33155940  0.23266184  0.23173106     0.84900
O443        O  0.23064264  0.21795642  0.31900073    -0.79200
O444        O  0.21386151  0.27049992  0.33432633    -0.89500
C445        C  0.25852887  0.15610826  0.25737081     0.84400
O446        O  0.17796692  0.28117386  0.27740587    -0.67700
O447        O  0.27845362  0.22276389  0.16177495    -0.87000
C448        C  0.16924991  0.25205159  0.27092989     0.85300
C449        C  0.21884316  0.23986970  0.34039339     1.06800
H450        H  0.22880814  0.22824801  0.21266696     0.38600
O451        O  0.24979918  0.22645296  0.22479054    -1.09600
O452        O  0.31115771  0.25598426  0.24299075    -0.66300
Ni453      Ni  0.26491903  0.26951183  0.23087939     1.26300
O454        O  0.19124915  0.22817142  0.26576150    -0.66500
O455        O  0.27877613  0.27386143  0.18474800    -0.78800
C456        C  0.25205688  0.33483113  0.24366554     0.84600
O457        O  0.27588591  0.31324166  0.23896728    -0.66000
Ni458      Ni  0.27848431  0.19486173  0.20033325     1.27400
Ni459      Ni  0.23981546  0.22083609  0.27182141     1.26100
H460        H  0.27049121  0.26551607  0.29078233     0.39200
C461        C  0.23036014  0.23759333  0.40134243    -0.20200
C462        C  0.21027339  0.22870119  0.37409842    -0.06700
C463        C  0.18451310  0.20668972  0.37864745     0.14100
C464        C  0.18052161  0.19259247  0.41040622    -0.20200
C465        C  0.20212993  0.19980230  0.43706947    -0.06700
C466        C  0.22701448  0.22301118  0.43279129     0.14100
C467        C  0.25140146  0.23197971  0.46029388    -0.23600
H468        H  0.25005147  0.25455187  0.39751537     0.15400
H469        H  0.16179840  0.17460310  0.41391218     0.15400
C470        C  0.16168267  0.19775579  0.34987019    -0.23500
H471        H  0.27755882  0.22473547  0.45176267     0.05600
H472        H  0.24675611  0.22005513  0.48473540     0.08900
H473        H  0.24929366  0.25898224  0.46525588     0.08900
H474        H  0.17661929  0.18548500  0.32866050     0.08900
H475        H  0.14827153  0.22037517  0.34059893     0.08900
H476        H  0.14248651  0.18073347  0.35802647     0.05600
C477        C  0.10568709  0.23700031  0.48947120    -0.20200
C478        C  0.08288933  0.21426264  0.50059587    -0.06700
C479        C  0.09617724  0.18480543  0.51536294     0.14100
C480        C  0.13112548  0.17759746  0.51515097    -0.20200
C481        C  0.15374185  0.19923254  0.50193337    -0.06700
C482        C  0.14085542  0.23022567  0.49086363     0.14100
C483        C  0.16335174  0.25716651  0.48201925    -0.23600
H484        H  0.09609685  0.26032605  0.47976055     0.15400
H485        H  0.14097299  0.15421846  0.52448178     0.15400
C486        C  0.07414097  0.16079826  0.53215201    -0.23500
H487        H  0.15578706  0.27972606  0.49733490     0.05600
H488        H  0.16108400  0.26261747  0.45459799     0.08900
H489        H  0.18993637  0.25064291  0.48805310     0.08900
H490        H  0.05862638  0.14845235  0.51290806     0.08900
H491        H  0.05768980  0.17388115  0.55175922     0.08900
H492        H  0.08928722  0.14115400  0.54509100     0.05600
C493        C  0.07112724  0.25971471  0.27917244    -0.20200
C494        C  0.06258811  0.22689739  0.27475557    -0.06700
C495        C  0.08930842  0.20266313  0.26953683     0.14100
C496        C  0.12309601  0.21175837  0.26782254    -0.20200
C497        C  0.13194678  0.24477269  0.27131767    -0.06700
C498        C  0.10503912  0.26895059  0.27815679     0.14100
C499        C  0.11123280  0.30481598  0.28387769    -0.23600
H500        H  0.05092799  0.27865728  0.28156671     0.15400
H501        H  0.14275737  0.19247416  0.26370231     0.15400
C502        C  0.08292035  0.16671837  0.26499395    -0.23500
H503        H  0.08737125  0.32000720  0.28814138     0.05600
H504        H  0.12401408  0.31433644  0.26125099     0.08900
H505        H  0.12686717  0.30804365  0.30683800     0.08900
H506        H  0.09175904  0.15779080  0.23933016     0.08900
H507        H  0.05589405  0.16175170  0.26784596     0.08900
H508        H  0.09703216  0.15248190  0.28448398     0.05600
C509        C  0.00257212  0.25146396  0.33889176    -0.20200
C510        C  0.99532614  0.22254895  0.32124846    -0.06700
C511        C  0.98325552  0.19624078  0.33989392     0.14100
C512        C  0.97838288  0.19974455  0.37540307    -0.20200
C513        C  0.98603800  0.22860268  0.39346812    -0.06700
C514        C  0.99853470  0.25489116  0.37450242     0.14100
C515        C  0.00836020  0.28672407  0.39107526    -0.23600
H516        H  0.01099135  0.27177570  0.32452056     0.15400
H517        H  0.96908245  0.17932505  0.38911961     0.15400
C518        C  0.97619297  0.16366989  0.32329027    -0.23500
H519        H  0.01838865  0.30368995  0.37231009     0.05600
H520        H  0.02847384  0.28170629  0.40996394     0.08900
H521        H  0.98600674  0.29970248  0.40352429     0.08900
H522        H  0.99032490  0.14358358  0.33654600     0.08900
H523        H  0.98422234  0.16177072  0.29626262     0.08900
H524        H  0.94879800  0.15978825  0.32508662     0.05600
C525        C  0.01268901  0.27227464  0.64770349    -0.20200
C526        C  0.00040476  0.25028055  0.67075605    -0.06700
C527        C  0.98563704  0.22171806  0.65787328     0.14100
C528        C  0.98075592  0.21775133  0.62243700    -0.20200
C529        C  0.99162911  0.24097777  0.59941549    -0.06700
C530        C  0.00938506  0.26786337  0.61256307     0.14100
C531        C  0.02583669  0.29211421  0.59020413    -0.23600
H532        H  0.02423292  0.29387801  0.65752011     0.15400
H533        H  0.96853363  0.19633436  0.61282022     0.15400
C534        C  0.97621271  0.19450793  0.68053102    -0.23500
H535        H  0.04142579  0.30900744  0.60509528     0.05600
H536        H  0.00639939  0.30774509  0.57724772     0.08900
H537        H  0.04282388  0.27875075  0.57125004     0.08900
H538        H  0.94850909  0.19218376  0.68004748     0.08900
H539        H  0.98427239  0.19868251  0.70711285     0.08900
H540        H  0.98898128  0.17095298  0.67126614     0.05600
C541        C  0.82792443  0.27903309  0.52325579    -0.20200
C542        C  0.80799784  0.25409790  0.51088259    -0.06700
C543        C  0.82419726  0.22488128  0.49705759     0.14100
C544        C  0.85951468  0.22235817  0.49353812    -0.20200
C545        C  0.87965175  0.24802050  0.50409499    -0.06700
C546        C  0.86342814  0.27653636  0.51990857     0.14100
C547        C  0.88319036  0.30421493  0.53393255    -0.23600
H548        H  0.81541436  0.30116497  0.53434637     0.15400
H549        H  0.87139491  0.19989665  0.48246108     0.15400
C550        C  0.80500113  0.19539239  0.48704738    -0.23500
H551        H  0.86655733  0.32363010  0.54687422     0.05600
H552        H  0.89662409  0.31589126  0.51298540     0.08900
H553        H  0.90161748  0.29464681  0.55283051     0.08900
H554        H  0.80852617  0.18983282  0.45941077     0.08900
H555        H  0.77766958  0.19899796  0.49285779     0.08900
H556        H  0.81472049  0.17381643  0.50141240     0.05600
C557        C  0.42852113  0.21815203  0.22716547    -0.20200
C558        C  0.43869506  0.23807548  0.25429927    -0.06700
C559        C  0.41340209  0.25406379  0.27559640     0.14100
C560        C  0.37904798  0.25168148  0.26777793    -0.20200
C561        C  0.36865150  0.23284058  0.23971415    -0.06700
C562        C  0.39415183  0.21512748  0.21959362     0.14100
C563        C  0.38596966  0.19419920  0.18886432    -0.23600
H564        H  0.44764492  0.20647297  0.21036360     0.15400
H565        H  0.36020509  0.26475909  0.28394134     0.15400
C566        C  0.42177309  0.27388802  0.30697606    -0.23500
H567        H  0.40906424  0.18376074  0.17546960     0.05600
H568        H  0.37129216  0.20924250  0.17041924     0.08900
H569        H  0.37148329  0.17313281  0.19676256     0.08900
H570        H  0.41348852  0.30009179  0.30369759     0.08900
H571        H  0.44905106  0.27223191  0.31277961     0.08900
H572        H  0.40836396  0.26451556  0.32931166     0.05600
C573        C  0.50025293  0.14508635  0.29379249    -0.20200
C574        C  0.50157801  0.12302410  0.26547853    -0.06700
C575        C  0.50572677  0.13641248  0.23258370     0.14100
C576        C  0.50749297  0.17072901  0.22925153    -0.20200
C577        C  0.50513891  0.19232891  0.25754137    -0.06700
C578        C  0.50204165  0.17924828  0.29023662     0.14100
C579        C  0.50065239  0.20081027  0.32197961    -0.23600
H580        H  0.49767973  0.13574908  0.31917587     0.15400
H581        H  0.50992140  0.18101496  0.20427948     0.15400
C582        C  0.50823693  0.11518295  0.20057944    -0.23500
H583        H  0.52162525  0.19300598  0.33896160     0.05600
H584        H  0.47632115  0.19832524  0.33551903     0.08900
H585        H  0.50303488  0.22715693  0.31669164     0.08900
H586        H  0.48474824  0.10201281  0.19721947     0.08900
H587        H  0.53033412  0.09732768  0.20189914     0.08900
H588        H  0.51161360  0.12993850  0.17756983     0.05600
C589        C  0.29549861  0.08274795  0.30400775    -0.20200
C590        C  0.27097752  0.06012096  0.29777081    -0.06700
C591        C  0.24235868  0.06909770  0.27818370     0.14100
C592        C  0.23852513  0.10097953  0.26595704    -0.20200
C593        C  0.26291932  0.12364406  0.27226511    -0.06700
C594        C  0.29188537  0.11454995  0.29126389     0.14100
C595        C  0.31839209  0.13864236  0.29901450    -0.23600
H596        H  0.31720698  0.07562435  0.31919202     0.15400
H597        H  0.21671625  0.10811978  0.25090819     0.15400
C598        C  0.21612413  0.04493880  0.26952934    -0.23500
H599        H  0.33854511  0.12780585  0.31535478     0.05600
H600        H  0.30664568  0.16073119  0.31257415     0.08900
H601        H  0.33045292  0.14613148  0.27508803     0.08900
H602        H  0.20301046  0.03767458  0.29292981     0.08900
H603        H  0.22829884  0.02273285  0.25657468     0.08900
H604        H  0.19666589  0.05561564  0.25229723     0.05600
C605        C  0.35181677  0.99473490  0.31717528    -0.20200
C606        C  0.32838649  0.00333747  0.29217721    -0.06700
C607        C  0.34016564  0.01748458  0.26204769     0.14100
C608        C  0.37484166  0.02353644  0.25840159    -0.20200
C609        C  0.39809319  0.01579061  0.28425495    -0.06700
C610        C  0.38615302  0.00013086  0.31361740     0.14100
C611        C  0.40929775  0.98814744  0.34151251    -0.23600
H612        H  0.34274967  0.98487161  0.34061208     0.15400
H613        H  0.38356541  0.03485147  0.23555052     0.15400
C614        C  0.31676135  0.02635601  0.23350369    -0.23500
H615        H  0.39591649  0.97380050  0.36052150     0.05600
H616        H  0.41960689  0.00923461  0.35554513     0.08900
H617        H  0.43007312  0.97174703  0.33044796     0.08900
H618        H  0.29070788  0.01918607  0.23850775     0.08900
H619        H  0.32588268  0.01340605  0.20968028     0.08900
H620        H  0.31615797  0.05330237  0.22977494     0.05600
C621        C  0.65201730  0.02427250  0.32492136    -0.20200
C622        C  0.67287090  0.01220845  0.29807024    -0.06700
C623        C  0.65801875  0.00397997  0.26668583     0.14100
C624        C  0.62258132  0.00807676  0.26316993    -0.20200
C625        C  0.60141945  0.01987951  0.29039775    -0.06700
C626        C  0.61692255  0.02829164  0.32183931     0.14100
C627        C  0.59737347  0.04172636  0.35281270    -0.23600
H628        H  0.66365818  0.03038274  0.34890221     0.15400
H629        H  0.61135357  0.00150098  0.23912151     0.15400
C630        C  0.67922075  0.99094161  0.23692881    -0.23500
H631        H  0.61417960  0.04822474  0.37407685     0.05600
H632        H  0.58076574  0.02295659  0.36244770     0.08900
H633        H  0.58234157  0.06449909  0.34642733     0.08900
H634        H  0.69218362  0.96714625  0.24320647     0.08900
H635        H  0.69807896  0.00875372  0.23026153     0.08900
H636        H  0.66367174  0.98667130  0.21409221     0.05600
C637        C  0.49747141  0.87700494  0.33101845    -0.20200
C638        C  0.49395654  0.85669331  0.30203755    -0.06700
C639        C  0.49237498  0.87101440  0.26989377     0.14100
C640        C  0.49392055  0.90532943  0.26754168    -0.20200
C641        C  0.49762963  0.92603590  0.29656077    -0.06700
C642        C  0.49960080  0.91124992  0.32886698     0.14100
C643        C  0.50469049  0.93083081  0.36129540    -0.23600
H644        H  0.49907634  0.86562872  0.35559301     0.15400
H645        H  0.49238536  0.91585299  0.24254865     0.15400
C646        C  0.48960127  0.85070042  0.23767062    -0.23500
H647        H  0.50700088  0.91484067  0.38369085     0.05600
H648        H  0.48280103  0.94854281  0.36616367     0.08900
H649        H  0.52825695  0.94410240  0.35939086     0.08900
H650        H  0.46599488  0.85834562  0.22443168     0.08900
H651        H  0.48928658  0.82408299  0.24244951     0.08900
H652        H  0.51147428  0.85452449  0.22072906     0.05600
C653        C  0.29095465  0.41481538  0.21937073    -0.20200
C654        C  0.26212676  0.43597673  0.21757171    -0.06700
C655        C  0.23002740  0.42306520  0.21996861     0.14100
C656        C  0.22750898  0.38969355  0.22703145    -0.20200
C657        C  0.25640724  0.36884587  0.23188506    -0.06700
C658        C  0.28871399  0.38140882  0.22637250     0.14100
C659        C  0.32123211  0.36076855  0.22987141    -0.23600
H660        H  0.31547942  0.42515629  0.21824613     0.15400
H661        H  0.20275949  0.38021802  0.23012782     0.15400
C662        C  0.19839980  0.44508169  0.21744040    -0.23500
H663        H  0.34370845  0.37528304  0.22590725     0.05600
H664        H  0.32257581  0.34043292  0.21045664     0.08900
H665        H  0.32291856  0.35072137  0.25581024     0.08900
H666        H  0.19768343  0.45658726  0.19218963     0.08900
H667        H  0.19782633  0.46465527  0.23766659     0.08900
H668        H  0.17534028  0.43118175  0.22028800     0.05600
C669        C  0.28723865  0.49276749  0.11464773    -0.20200
C670        C  0.25709222  0.50210812  0.09807938    -0.06700
C671        C  0.22790103  0.51068717  0.11851439     0.14100
C672        C  0.22955615  0.50846288  0.15418198    -0.20200
C673        C  0.25937072  0.49806714  0.17032848    -0.06700
C674        C  0.28885003  0.49113617  0.15032668     0.14100
C675        C  0.32277248  0.48339152  0.16585666    -0.23600
H676        H  0.30993195  0.48675298  0.09969438     0.15400
H677        H  0.20742466  0.51496638  0.16979540     0.15400
C678        C  0.19502404  0.52320002  0.10340443    -0.23500
H679        H  0.33240451  0.45836051  0.15738984     0.05600
H680        H  0.32212608  0.48459712  0.19400866     0.08900
H681        H  0.34072913  0.50150202  0.15736048     0.08900
H682        H  0.18409144  0.50350707  0.08774464     0.08900
H683        H  0.19921678  0.54483333  0.08762885     0.08900
H684        H  0.17605506  0.53103948  0.12337532     0.05600
C685        C  0.26735837  0.26363800  0.10045180    -0.20200
C686        C  0.29066019  0.26638773  0.12656599    -0.06700
C687        C  0.32208963  0.27981427  0.12006131     0.14100
C688        C  0.32998868  0.28847379  0.08680186    -0.20200
C689        C  0.30722827  0.28425170  0.06022118    -0.06700
C690        C  0.27512556  0.27262794  0.06735232     0.14100
C691        C  0.24945310  0.26814402  0.04004916    -0.23600
H692        H  0.24319949  0.25370369  0.10590756     0.15400
H693        H  0.35481523  0.29686773  0.08118593     0.15400
C694        C  0.34862493  0.28354044  0.14688149    -0.23500
H695        H  0.22666530  0.25677345  0.04984611     0.05600
H696        H  0.26031067  0.25203973  0.01902664     0.08900
H697        H  0.24124479  0.29258064  0.03054994     0.08900
H698        H  0.37200744  0.26893796  0.13904154     0.08900
H699        H  0.34095327  0.27510499  0.17216856     0.08900
H700        H  0.35439878  0.30981754  0.14962900     0.05600
C701        C  0.31164275  0.35586173  0.01683677    -0.20200
C702        C  0.29197667  0.33299771  0.00018473    -0.06700
C703        C  0.26196268  0.34476084  0.98410759     0.14100
C704        C  0.25368136  0.37894583  0.98367351    -0.20200
C705        C  0.27436381  0.40176926  0.99916571    -0.06700
C706        C  0.30327421  0.38971849  0.01689976     0.14100
C707        C  0.32545737  0.41213519  0.03666189    -0.23600
H708        H  0.33453250  0.34707732  0.02924060     0.15400
H709        H  0.23114567  0.38781857  0.97067695     0.15400
C710        C  0.23769663  0.32228601  0.96788897    -0.23500
H711        H  0.34468247  0.39806370  0.05160368     0.05600
H712        H  0.30987469  0.42799956  0.05485280     0.08900
H713        H  0.33932892  0.42753373  0.01909584     0.08900
H714        H  0.24460975  0.29614379  0.97218852     0.08900
H715        H  0.23668037  0.32632872  0.94009922     0.08900
H716        H  0.21214904  0.32757579  0.97913394     0.05600
C717        C  0.22234550  0.49247783  0.83657387    -0.20200
C718        C  0.25208342  0.48345397  0.81843831    -0.06700
C719        C  0.28244854  0.47890168  0.83661065     0.14100
C720        C  0.28224051  0.48359803  0.87233245    -0.20200
C721        C  0.25238602  0.49268520  0.89082319    -0.06700
C722        C  0.22182675  0.49677429  0.87226224     0.14100
C723        C  0.18836300  0.50616775  0.88932861    -0.23600
H724        H  0.19924925  0.49624359  0.82240172     0.15400
H725        H  0.30578820  0.48008058  0.88579968     0.15400
C726        C  0.31566892  0.47024437  0.81897966    -0.23500
H727        H  0.16782059  0.50976686  0.87059366     0.05600
H728        H  0.18992247  0.52960757  0.90413253     0.08900
H729        H  0.18112023  0.48631875  0.90625960     0.08900
H730        H  0.33363167  0.48936835  0.82518945     0.08900
H731        H  0.31348322  0.46869666  0.79095610     0.08900
H732        H  0.32614435  0.44615436  0.82785263     0.05600
C733        C  0.27000790  0.61669203  0.01521961    -0.20200
C734        C  0.24377734  0.60034632  0.99928995    -0.06700
C735        C  0.21637661  0.61973438  0.98627148     0.14100
C736        C  0.21633526  0.65439683  0.98906496    -0.20200
C737        C  0.24292921  0.67064927  0.00435828    -0.06700
C738        C  0.27023187  0.65126250  0.01747496     0.14100
C739        C  0.30097175  0.66590245  0.03219555    -0.23600
H740        H  0.29121887  0.60231412  0.02538448     0.15400
H741        H  0.19543459  0.66913907  0.97886299     0.15400
C742        C  0.18768728  0.60426210  0.96833849    -0.23500
H743        H  0.32394030  0.65473379  0.01916695     0.05600
H744        H  0.30244664  0.66082885  0.05976193     0.08900
H745        H  0.30109758  0.69266445  0.02862725     0.08900
H746        H  0.17399460  0.58906348  0.98627528     0.08900
H747        H  0.19756387  0.58865761  0.94646796     0.08900
H748        H  0.16925938  0.62308162  0.95841164     0.05600
C749        C  0.12086771  0.28109903  0.71615037    -0.20200
C750        C  0.13246468  0.24894876  0.72345156    -0.06700
C751        C  0.11016971  0.22318451  0.72183357     0.14100
C752        C  0.07595022  0.23095829  0.71602885    -0.20200
C753        C  0.06393029  0.26379453  0.71340633    -0.06700
C754        C  0.08663917  0.28903933  0.71189191     0.14100
C755        C  0.07479065  0.32460122  0.70801301    -0.23600
H756        H  0.13837791  0.30057007  0.71647590     0.15400
H757        H  0.05806938  0.21187914  0.71744049     0.15400
C758        C  0.12156856  0.18824742  0.72940536    -0.23500
H759        H  0.09627961  0.34083852  0.70697506     0.05600
H760        H  0.05847391  0.33332920  0.72981881     0.08900
H761        H  0.06056073  0.32753785  0.68411026     0.08900
H762        H  0.13246072  0.18718108  0.75528383     0.08900
H763        H  0.14081539  0.17888753  0.71035398     0.08900
H764        H  0.10033798  0.17165992  0.72844079     0.05600
C765        C  0.21331928  0.21314545  0.56374423    -0.20200
C766        C  0.20944415  0.17968626  0.55628642    -0.06700
C767        C  0.21464316  0.15643396  0.58203929     0.14100
C768        C  0.22593039  0.16703411  0.61391996    -0.20200
C769        C  0.23176194  0.20016379  0.62052984    -0.06700
C770        C  0.22456961  0.22365414  0.59563422     0.14100
C771        C  0.23041278  0.25946154  0.60214879    -0.23600
H772        H  0.20967589  0.23089084  0.54389864     0.15400
H773        H  0.23082139  0.14933946  0.63360699     0.15400
C774        C  0.20802938  0.12063234  0.57623270    -0.23500
H775        H  0.22421490  0.27441956  0.57960415     0.05600
H776        H  0.25731264  0.26232033  0.60836517     0.08900
H777        H  0.21432664  0.26920430  0.62378135     0.08900
H778        H  0.22577933  0.10890519  0.55707655     0.08900
H779        H  0.18178683  0.11842162  0.56739029     0.08900
H780        H  0.21112443  0.10661716  0.59995799     0.05600
C781        C  0.27855264  0.36293593  0.75495247    -0.20200
C782        C  0.25271561  0.35033791  0.77459801    -0.06700
C783        C  0.23116616  0.37325859  0.79405482     0.14100
C784        C  0.23448151  0.40730332  0.79108639    -0.20200
C785        C  0.25862342  0.41960446  0.76955003    -0.06700
C786        C  0.28178785  0.39705724  0.75218669     0.14100
C787        C  0.31035795  0.40875978  0.73094175    -0.23600
H788        H  0.29594219  0.34602981  0.74092177     0.15400
H789        H  0.21670223  0.42450958  0.80422943     0.15400
C790        C  0.20422759  0.36269013  0.81807814    -0.23500
H791        H  0.32733602  0.38791935  0.72123894     0.05600
H792        H  0.32565431  0.42524391  0.74658263     0.08900
H793        H  0.30071263  0.42206404  0.70854489     0.08900
H794        H  0.21563725  0.34593671  0.83716084     0.08900
H795        H  0.18441420  0.35038479  0.80365130     0.08900
H796        H  0.19152762  0.38392535  0.83229180     0.05600
C797        C  0.29959521  0.29045979  0.87737018    -0.20200
C798        C  0.27740876  0.26496849  0.87360250    -0.06700
C799        C  0.26779105  0.24743407  0.90218358     0.14100
C800        C  0.28179535  0.25499477  0.93371612    -0.20200
C801        C  0.30372168  0.28064897  0.93749965    -0.06700
C802        C  0.31264755  0.29871145  0.90921974     0.14100
C803        C  0.33614046  0.32626313  0.91269870    -0.23600
H804        H  0.30653516  0.30408381  0.85529908     0.15400
H805        H  0.27575416  0.24077930  0.95565332     0.15400
C806        C  0.24380514  0.22016267  0.89938466    -0.23500
H807        H  0.34050185  0.33793013  0.88795436     0.05600
H808        H  0.36085015  0.31665946  0.92236272     0.08900
H809        H  0.32513079  0.34540766  0.93082649     0.08900
H810        H  0.25377095  0.20105764  0.88067132     0.08900
H811        H  0.21871679  0.23014382  0.89112827     0.08900
H812        H  0.24026249  0.20825652  0.92415135     0.05600
C813        C  0.42101804  0.20945855  0.81031309    -0.20200
C814        C  0.44858466  0.20720142  0.78767362    -0.06700
C815        C  0.44413258  0.21734202  0.75375167     0.14100
C816        C  0.41193113  0.22787204  0.74308242    -0.20200
C817        C  0.38437595  0.22948687  0.76555265    -0.06700
C818        C  0.38893247  0.22050715  0.79970124     0.14100
C819        C  0.35995169  0.22134264  0.82471205    -0.23600
H820        H  0.42455713  0.20212114  0.83639258     0.15400
H821        H  0.40801559  0.23443002  0.71680417     0.15400
C822        C  0.47294380  0.21823128  0.72875124    -0.23500
H823        H  0.36791635  0.21228848  0.84995507     0.05600
H824        H  0.34002023  0.20558135  0.81509970     0.08900
H825        H  0.34964095  0.24706133  0.82845149     0.08900
H826        H  0.48347656  0.19303284  0.72301207     0.08900
H827        H  0.49252132  0.23378321  0.73919426     0.08900
H828        H  0.46476527  0.22877973  0.70421100     0.05600
C829        C  0.50975602  0.09725757  0.73221909    -0.20200
C830        C  0.48648373  0.07924225  0.74987027    -0.06700
C831        C  0.46673124  0.09503272  0.77624302     0.14100
C832        C  0.47234171  0.12760300  0.78577890    -0.20200
C833        C  0.49710202  0.14533478  0.76970300    -0.06700
C834        C  0.51517549  0.13014432  0.74157536     0.14100
C835        C  0.54001519  0.14763012  0.72057069    -0.23600
H836        H  0.52468636  0.08526009  0.71173193     0.15400
H837        H  0.45832845  0.13877840  0.80726189     0.15400
C838        C  0.43972946  0.07762535  0.79471175    -0.23500
H839        H  0.53336334  0.14542015  0.69327787     0.05600
H840        H  0.56580699  0.13632238  0.72404168     0.08900
H841        H  0.53976320  0.17416198  0.72693281     0.08900
H842        H  0.45112967  0.05728259  0.80972608     0.08900
H843        H  0.42183943  0.06768018  0.77608152     0.08900
H844        H  0.42507646  0.09449653  0.81273455     0.05600
C845        C  0.28256745  0.07432327  0.75647574    -0.20200
C846        C  0.26226758  0.05722460  0.73390549    -0.06700
C847        C  0.24471459  0.07477603  0.70827001     0.14100
C848        C  0.24543916  0.10907994  0.70776157    -0.20200
C849        C  0.26509503  0.12634344  0.73065362    -0.06700
C850        C  0.28477451  0.10866361  0.75465822     0.14100
C851        C  0.30718707  0.12607215  0.77905876    -0.23600
H852        H  0.29580571  0.06099108  0.77625126     0.15400
H853        H  0.23155601  0.12235327  0.68835942     0.15400
C854        C  0.22576552  0.05797320  0.68034147    -0.23500
H855        H  0.31971073  0.10875751  0.79695839     0.05600
H856        H  0.29199784  0.14507991  0.79418976     0.08900
H857        H  0.32722464  0.13795929  0.76482776     0.08900
H858        H  0.19855448  0.06571928  0.68225167     0.08900
H859        H  0.22863972  0.03078091  0.68103045     0.08900
H860        H  0.23563869  0.06514572  0.65524252     0.05600
C861        C  0.32994447  0.98918729  0.77346401    -0.20200
C862        C  0.31235601  0.99481995  0.74327471    -0.06700
C863        C  0.33064505  0.99758223  0.71274636     0.14100
C864        C  0.36610982  0.99417944  0.71304049    -0.20200
C865        C  0.38423598  0.98812944  0.74321742    -0.06700
C866        C  0.36548344  0.98626219  0.77408032     0.14100
C867        C  0.38224080  0.98131979  0.80790474    -0.23600
H868        H  0.31552984  0.98717251  0.79677875     0.15400
H869        H  0.37968530  0.99616232  0.68923396     0.15400
C870        C  0.31275274  0.00316432  0.67964881    -0.23500
H871        H  0.36353323  0.98066160  0.82902590     0.05600
H872        H  0.39855955  0.00195947  0.81361736     0.08900
H873        H  0.39742589  0.95758555  0.80745392     0.08900
H874        H  0.29831126  0.02723473  0.68067682     0.08900
H875        H  0.29523405  0.98337566  0.67470722     0.08900
H876        H  0.33074870  0.00330711  0.65786884     0.05600
C877        C  0.50878437  0.82893967  0.69552400    -0.20200
C878        C  0.50439503  0.81132316  0.72528302    -0.06700
C879        C  0.49458598  0.82879108  0.75555316     0.14100
C880        C  0.48878275  0.86313206  0.75519199    -0.20200
C881        C  0.49314858  0.88114839  0.72546358    -0.06700
C882        C  0.50343494  0.86348848  0.69511920     0.14100
C883        C  0.50959372  0.88060623  0.66234153    -0.23600
H884        H  0.51621809  0.81534686  0.67234038     0.15400
H885        H  0.48126664  0.87595965  0.77880086     0.15400
C886        C  0.49106601  0.81214489  0.78893456    -0.23500
H887        H  0.51837417  0.86299811  0.64164069     0.05600
H888        H  0.52933746  0.89855072  0.66604442     0.08900
H889        H  0.48586915  0.89342657  0.65385081     0.08900
H890        H  0.50784930  0.82322451  0.80794308     0.08900
H891        H  0.49828867  0.78561431  0.78694926     0.08900
H892        H  0.46457115  0.81540463  0.79820507     0.05600
C893        C  0.60082737  0.99301212  0.69323736    -0.20200
C894        C  0.58862917  0.98215320  0.72457243    -0.06700
C895        C  0.61242621  0.97391823  0.75013989     0.14100
C896        C  0.64703004  0.97706593  0.74368696    -0.20200
C897        C  0.65889259  0.98790067  0.71243721    -0.06700
C898        C  0.63538899  0.99551183  0.68671252     0.14100
C899        C  0.64581894  0.00518340  0.65158329    -0.23600
H900        H  0.58329058  0.99933891  0.67318299     0.15400
H901        H  0.66503828  0.97124073  0.76334799     0.15400
C902        C  0.60204471  0.96112792  0.78404216    -0.23500
H903        H  0.63568167  0.98794843  0.63242353     0.05600
H904        H  0.67345434  0.00442297  0.64768712     0.08900
H905        H  0.63541194  0.03047540  0.64671787     0.08900
H906        H  0.58796983  0.93857833  0.78014475     0.08900
H907        H  0.58613614  0.98021221  0.79828048     0.08900
H908        H  0.62417660  0.95462929  0.80007813     0.05600
C909        C  0.70704428  0.09727158  0.74162913    -0.20200
C910        C  0.71620205  0.11606773  0.71403334    -0.06700
C911        C  0.71533668  0.10244232  0.68066633     0.14100
C912        C  0.70876048  0.06930309  0.67612066    -0.20200
C913        C  0.70377682  0.04934248  0.70400204    -0.06700
C914        C  0.70151629  0.06373759  0.73711612     0.14100
C915        C  0.69641058  0.04345764  0.76799336    -0.23600
H916        H  0.70726576  0.10807469  0.76712491     0.15400
H917        H  0.71066456  0.05819494  0.65074043     0.15400
C918        C  0.72249389  0.12164991  0.64940539    -0.23500
H919        H  0.69790600  0.05834676  0.79195411     0.05600
H920        H  0.71599583  0.02294078  0.76881887     0.08900
H921        H  0.67105053  0.03360239  0.76722611     0.08900
H922        H  0.74615890  0.11137114  0.63696618     0.08900
H923        H  0.72483278  0.14820346  0.65499382     0.08900
H924        H  0.70145906  0.11960758  0.63123466     0.05600
C925        C  0.73903796  0.25919703  0.63213913    -0.20200
C926        C  0.75674570  0.22920563  0.63797476    -0.06700
C927        C  0.77603941  0.21330518  0.61120506     0.14100
C928        C  0.77464403  0.22630808  0.57864907    -0.20200
C929        C  0.75591900  0.25562672  0.57236604    -0.06700
C930        C  0.73910144  0.27311756  0.59986547     0.14100
C931        C  0.72233532  0.30697966  0.59584441    -0.23600
H932        H  0.72569426  0.27213271  0.65309527     0.15400
H933        H  0.78712316  0.21258450  0.55778435     0.15400
C934        C  0.79729995  0.18198151  0.61631889    -0.23500
H935        H  0.71407554  0.31828413  0.62078630     0.05600
H936        H  0.69961053  0.30615539  0.57991776     0.08900
H937        H  0.74041871  0.32329080  0.58418585     0.08900
H938        H  0.78156746  0.16299550  0.62690664     0.08900
H939        H  0.81828396  0.18672191  0.63386373     0.08900
H940        H  0.80880566  0.17196494  0.59206874     0.05600
C941        C  0.62500628  0.18264357  0.77429927    -0.20200
C942        C  0.62362268  0.21405469  0.76022104    -0.06700
C943        C  0.59268669  0.23205317  0.75729484     0.14100
C944        C  0.56379529  0.21912025  0.77040691    -0.20200
C945        C  0.56507026  0.18840687  0.78587983    -0.06700
C946        C  0.59576160  0.16956585  0.78737279     0.14100
C947        C  0.59760854  0.13640379  0.80338924    -0.23600
H948        H  0.64915688  0.16911647  0.77652362     0.15400
H949        H  0.54022487  0.23374273  0.77004756     0.15400
C950        C  0.59026564  0.26507568  0.74082376    -0.23500
H951        H  0.62365694  0.12491581  0.80243801     0.05600
H952        H  0.58084376  0.11980424  0.78962414     0.08900
H953        H  0.58936365  0.13897154  0.83043488     0.08900
H954        H  0.60019447  0.26248086  0.71433328     0.08900
H955        H  0.60515307  0.28281576  0.75533248     0.08900
H956        H  0.56379353  0.27535267  0.73987937     0.05600
C957        C  0.88305938  0.26435126  0.71253442    -0.20200
C958        C  0.87522561  0.24064726  0.73614552    -0.06700
C959        C  0.90090994  0.22315298  0.75356455     0.14100
C960        C  0.93409505  0.23114173  0.74822578    -0.20200
C961        C  0.94189520  0.25551425  0.72540902    -0.06700
C962        C  0.91637249  0.27195384  0.70676008     0.14100
C963        C  0.92323869  0.29805695  0.68157502    -0.23600
H964        H  0.86304844  0.27691397  0.69845995     0.15400
H965        H  0.95408633  0.21914205  0.76277967     0.15400
C966        C  0.89333243  0.19722032  0.77872877    -0.23500
H967        H  0.91454362  0.29021450  0.65601797     0.05600
H968        H  0.95032296  0.30286271  0.67946348     0.08900
H969        H  0.90928771  0.32145996  0.68944467     0.08900
H970        H  0.88162564  0.17636763  0.76561356     0.08900
H971        H  0.87588809  0.20794446  0.79883926     0.08900
H972        H  0.91656269  0.18725317  0.79119848     0.05600
C973        C  0.72651786  0.12726546  0.30754807    -0.20200
C974        C  0.73371462  0.12896657  0.27271015    -0.06700
C975        C  0.73467819  0.10015331  0.25190375     0.14100
C976        C  0.72987578  0.07001375  0.26682008    -0.20200
C977        C  0.72382572  0.06809337  0.30180509    -0.06700
C978        C  0.72154472  0.09702037  0.32245141     0.14100
C979        C  0.71363869  0.09606548  0.35995120    -0.23600
H980        H  0.72464696  0.14967204  0.32300523     0.15400
H981        H  0.73276490  0.04761245  0.25140778     0.15400
C982        C  0.74238915  0.10082826  0.21430801    -0.23500
H983        H  0.71158581  0.12112604  0.37188134     0.05600
H984        H  0.73379956  0.08164948  0.37320019     0.08900
H985        H  0.68923969  0.08464817  0.36383208     0.08900
H986        H  0.76698064  0.11182043  0.21012614     0.08900
H987        H  0.72225069  0.11549342  0.20124693     0.08900
H988        H  0.74388439  0.07574602  0.20240317     0.05600
C989        C  0.78556397  0.27520473  0.39320462    -0.20200
C990        C  0.77093772  0.24937885  0.37495603    -0.06700
C991        C  0.75501605  0.22507509  0.39345268     0.14100
C992        C  0.75227850  0.22869967  0.42893159    -0.20200
C993        C  0.76430217  0.25607082  0.44631516    -0.06700
C994        C  0.78122294  0.27957630  0.42833675     0.14100
C995        C  0.79196195  0.31080207  0.44537621    -0.23600
H996        H  0.79854262  0.29368714  0.37974669     0.15400
H997        H  0.73877391  0.21106442  0.44314113     0.15400
C998        C  0.73942207  0.19614856  0.37647889    -0.23500
H999        H  0.80262760  0.32762427  0.42685239     0.05600
H1000       H  0.81165026  0.30503723  0.46427001     0.08900
H1001       H  0.76993961  0.32408783  0.45814421     0.08900
H1002       H  0.75898837  0.18134307  0.36154257     0.08900
H1003       H  0.71862857  0.20482106  0.35970216     0.08900
H1004       H  0.72854418  0.17972265  0.39527216     0.05600
C1005       C  0.62463339  0.24754784  0.25858881    -0.20200
C1006       C  0.63546946  0.24090030  0.22483953    -0.06700
C1007       C  0.61099743  0.23235705  0.20047277     0.14100
C1008       C  0.57672686  0.23155771  0.21028507    -0.20200
C1009       C  0.56594266  0.23872018  0.24388622    -0.06700
C1010       C  0.59040913  0.24639331  0.26834964     0.14100
C1011       C  0.58033001  0.25332270  0.30496238    -0.23600
H1012       H  0.64314992  0.25327812  0.27758589     0.15400
H1013       H  0.55792703  0.22696455  0.19120507     0.15400
C1014       C  0.62042734  0.22591352  0.16358983    -0.23500
H1015       H  0.60241846  0.25842308  0.32095911     0.05600
H1016       H  0.56843281  0.23160847  0.31520345     0.08900
H1017       H  0.56217982  0.27502519  0.30705062     0.08900
H1018       H  0.63759911  0.20356036  0.16072502     0.08900
H1019       H  0.63291406  0.24741664  0.15362477     0.08900
H1020       H  0.59796241  0.22186327  0.14775098     0.05600
C1021       C  0.87687760  0.20752761  0.25776933    -0.20200
C1022       C  0.86438678  0.23881123  0.26963141    -0.06700
C1023       C  0.88797247  0.26044384  0.28378433     0.14100
C1024       C  0.92269945  0.25095768  0.28382720    -0.20200
C1025       C  0.93522029  0.22068507  0.26988145    -0.06700
C1026       C  0.91173714  0.19833401  0.25746728     0.14100
C1027       C  0.92250796  0.16444747  0.24370019    -0.23600
H1028       H  0.85941548  0.19025335  0.24784974     0.15400
H1029       H  0.94049702  0.26820752  0.29309779     0.15400
C1030       C  0.87721605  0.29380727  0.29909754    -0.23500
H1031       H  0.90971459  0.14579168  0.25842162     0.05600
H1032       H  0.95000388  0.15873065  0.24547758     0.08900
H1033       H  0.91522993  0.16213207  0.21659218     0.08900
H1034       H  0.85797497  0.29122680  0.31937957     0.08900
H1035       H  0.86697858  0.31015812  0.27909067     0.08900
H1036       H  0.89866892  0.30612035  0.31079295     0.05600
C1037       C  0.76887102  0.42312189  0.20719362    -0.20200
C1038       C  0.74162856  0.44052135  0.22351893    -0.06700
C1039       C  0.71424784  0.42342535  0.23581494     0.14100
C1040       C  0.71594723  0.38901713  0.23365277    -0.20200
C1041       C  0.74487296  0.37155015  0.22074951    -0.06700
C1042       C  0.77107676  0.38867929  0.20602175     0.14100
C1043       C  0.80172526  0.37084770  0.18984086    -0.23600
H1044       H  0.78988450  0.43636575  0.19804073     0.15400
H1045       H  0.69582111  0.37568661  0.24462507     0.15400
C1046       C  0.68379739  0.44125955  0.25237436    -0.23500
H1047       H  0.81853606  0.38814817  0.17775823     0.05600
H1048       H  0.79377235  0.35325223  0.16984111     0.08900
H1049       H  0.81666543  0.35737644  0.20924265     0.08900
H1050       H  0.67202219  0.45887293  0.23439428     0.08900
H1051       H  0.69103722  0.45475156  0.27578093     0.08900
H1052       H  0.66451350  0.42398973  0.25972875     0.05600
C1053       C  0.78575935  0.49632615  0.16096485    -0.20200
C1054       C  0.75397597  0.49829925  0.17663364    -0.06700
C1055       C  0.72493532  0.49784202  0.15635334     0.14100
C1056       C  0.72844182  0.49583323  0.12074364    -0.20200
C1057       C  0.76038049  0.49409899  0.10455034    -0.06700
C1058       C  0.78955445  0.49377288  0.12539176     0.14100
C1059       C  0.82493630  0.49057786  0.11097808    -0.23600
H1060       H  0.80779916  0.49632844  0.17698797     0.15400
H1061       H  0.70579382  0.49596374  0.10559654     0.15400
C1062       C  0.68993455  0.50038194  0.17154314    -0.23500
H1063       H  0.84419047  0.49014461  0.13128237     0.05600
H1064       H  0.82954844  0.51184171  0.09485119     0.08900
H1065       H  0.82873893  0.46719296  0.09591967     0.08900
H1066       H  0.67557997  0.52202385  0.16123314     0.08900
H1067       H  0.68997491  0.50349386  0.19961282     0.08900
H1068       H  0.67677002  0.47782929  0.16481208     0.05600
C1069       C  0.76868698  0.28105112  0.10719598    -0.20200
C1070       C  0.74240771  0.26020091  0.11349703    -0.06700
C1071       C  0.72385943  0.24795482  0.08606609     0.14100
C1072       C  0.73357583  0.25490280  0.05284904    -0.20200
C1073       C  0.76210035  0.27270588  0.04643350    -0.06700
C1074       C  0.77916990  0.28699177  0.07378213     0.14100
C1075       C  0.80946607  0.30673175  0.06778078    -0.23600
H1076       H  0.78251541  0.29084305  0.12844883     0.15400
H1077       H  0.72052029  0.24409585  0.03159236     0.15400
C1078       C  0.69423877  0.22716268  0.09167101    -0.23500
H1079       H  0.82043807  0.31532188  0.09208440     0.05600
H1080       H  0.80204874  0.32870466  0.05294365     0.08900
H1081       H  0.82922867  0.29152842  0.05349799     0.08900
H1082       H  0.67520738  0.24095488  0.10814642     0.08900
H1083       H  0.70254168  0.20390947  0.10392240     0.08900
H1084       H  0.68195701  0.22064142  0.06735058     0.05600
C1085       C  0.73242880  0.27841112  0.87707286    -0.20200
C1086       C  0.75834102  0.27333604  0.85242379    -0.06700
C1087       C  0.79239086  0.27293951  0.86339189     0.14100
C1088       C  0.79908244  0.27573723  0.89832946    -0.20200
C1089       C  0.77303152  0.27866397  0.92265655    -0.06700
C1090       C  0.73922006  0.28042826  0.91186888     0.14100
C1091       C  0.70944920  0.28189955  0.93612199    -0.23600
H1092       H  0.70625719  0.27946452  0.86943689     0.15400
H1093       H  0.82493272  0.27358104  0.90696723     0.15400
C1094       C  0.82204867  0.26861977  0.83910834    -0.23500
H1095       H  0.69433476  0.26016328  0.93140013     0.05600
H1096       H  0.69333962  0.30453998  0.93179723     0.08900
H1097       H  0.71654094  0.28199343  0.96320880     0.08900
H1098       H  0.82141301  0.28905196  0.82099934     0.08900
H1099       H  0.82151215  0.24463723  0.82510236     0.08900
H1100       H  0.84649648  0.26884178  0.85255705     0.05600
C1101       C  0.74180046  0.34030898  0.00284094    -0.20200
C1102       C  0.77115142  0.32440503  0.98861136    -0.06700
C1103       C  0.79757445  0.34375098  0.97797460     0.14100
C1104       C  0.79342357  0.37814057  0.98028208    -0.20200
C1105       C  0.76421684  0.39438656  0.99450267    -0.06700
C1106       C  0.73801925  0.37499936  0.00610823     0.14100
C1107       C  0.70659585  0.39044032  0.02299128    -0.23600
H1108       H  0.72188919  0.32544169  0.01164409     0.15400
H1109       H  0.81388271  0.39241439  0.97155501     0.15400
C1110       C  0.83141844  0.32910669  0.96582308    -0.23500
H1111       H  0.68970304  0.37159347  0.03198366     0.05600
H1112       H  0.69226050  0.40591000  0.00468800     0.08900
H1113       H  0.71347043  0.40573273  0.04539029     0.08900
H1114       H  0.83541316  0.33510110  0.93875768     0.08900
H1115       H  0.83436705  0.30214639  0.96838661     0.08900
H1116       H  0.85159639  0.33971477  0.98127148     0.05600
C1117       C  0.80681501  0.40177648  0.76600847    -0.20200
C1118       C  0.78134504  0.42652833  0.77234486    -0.06700
C1119       C  0.74730960  0.41824551  0.77319354     0.14100
C1120       C  0.73978471  0.38560978  0.76768245    -0.20200
C1121       C  0.76492664  0.36085658  0.75970097    -0.06700
C1122       C  0.79916878  0.36900267  0.75945945     0.14100
C1123       C  0.82782069  0.34382746  0.75213358    -0.23600
H1124       H  0.83276267  0.40855332  0.76424051     0.15400
H1125       H  0.71346433  0.37986926  0.76811273     0.15400
C1126       C  0.71772943  0.44301635  0.77694447    -0.23500
H1127       H  0.85275560  0.35472708  0.75404155     0.05600
H1128       H  0.82579169  0.33345942  0.72589433     0.08900
H1129       H  0.82731958  0.32386373  0.77073254     0.08900
H1130       H  0.70063910  0.44032062  0.75498587     0.08900
H1131       H  0.72491447  0.46865696  0.77746687     0.08900
H1132       H  0.70357181  0.43859924  0.80072087     0.05600
C1133       C  0.74658480  0.49815120  0.84049898    -0.20200
C1134       C  0.77741496  0.48658690  0.82568680    -0.06700
C1135       C  0.80483832  0.47870297  0.84700623     0.14100
C1136       C  0.80054817  0.48125359  0.88251734    -0.20200
C1137       C  0.76949223  0.49215992  0.89777073    -0.06700
C1138       C  0.74208238  0.50083833  0.87611170     0.14100
C1139       C  0.70822382  0.51380005  0.88988748    -0.23600
H1140       H  0.72601255  0.50556812  0.82404254     0.15400
H1141       H  0.82189629  0.47481370  0.89843250     0.15400
C1142       C  0.83921240  0.46921069  0.83217423    -0.23500
H1143       H  0.69052962  0.52063723  0.86920711     0.05600
H1144       H  0.71124212  0.53615439  0.90609076     0.08900
H1145       H  0.69650777  0.49466431  0.90485021     0.08900
H1146       H  0.84740244  0.48899262  0.81560694     0.08900
H1147       H  0.83844973  0.44596217  0.81700382     0.08900
H1148       H  0.85837804  0.46542041  0.85227532     0.05600
C1149       C  0.79669818  0.64498857  0.00136726    -0.20200
C1150       C  0.76847482  0.66414165  0.01357400    -0.06700
C1151       C  0.73920796  0.64809866  0.02261186     0.14100
C1152       C  0.73924607  0.61340784  0.01972328    -0.20200
C1153       C  0.76763172  0.59407335  0.00735744    -0.06700
C1154       C  0.79678584  0.61054922  0.99790103     0.14100
C1155       C  0.82805479  0.59252040  0.98316921    -0.23600
H1156       H  0.81906930  0.65733876  0.99445336     0.15400
H1157       H  0.71668492  0.60144161  0.02696623     0.15400
C1158       C  0.70725557  0.66684183  0.03413795    -0.23500
H1159       H  0.84720072  0.60968851  0.97518684     0.05600
H1160       H  0.82146973  0.57769613  0.96033414     0.08900
H1161       H  0.83999718  0.57641429  0.00248687     0.08900
H1162       H  0.68622806  0.66006192  0.01744358     0.08900
H1163       H  0.70906565  0.69379640  0.03288350     0.08900
H1164       H  0.70119838  0.66054592  0.06072189     0.05600
C1165       C  0.73182119  0.73489649  0.08839331    -0.20200
C1166       C  0.76029790  0.71524093  0.07749630    -0.06700
C1167       C  0.78115159  0.69992903  0.10175749     0.14100
C1168       C  0.77373959  0.70554491  0.13646365    -0.20200
C1169       C  0.74597886  0.72633075  0.14761900    -0.06700
C1170       C  0.72418594  0.74053126  0.12305908     0.14100
C1171       C  0.69390307  0.76292805  0.13285661    -0.23600
H1172       H  0.71647589  0.74740494  0.06950946     0.15400
H1173       H  0.78997139  0.69369818  0.15503743     0.15400
C1174       C  0.81194602  0.67876125  0.09107092    -0.23500
H1175       H  0.68136116  0.77358960  0.11021893     0.05600
H1176       H  0.70176249  0.78358958  0.14937637     0.08900
H1177       H  0.67495692  0.74897708  0.14640839     0.08900
H1178       H  0.82921654  0.69320414  0.07584155     0.08900
H1179       H  0.80428279  0.65735956  0.07557371     0.08900
H1180       H  0.82601417  0.66925081  0.11335386     0.05600
C1181       C  0.61651843  0.80203620  0.31380289    -0.20200
C1182       C  0.62238901  0.78731084  0.28121874    -0.06700
C1183       C  0.59458166  0.78487959  0.25893638     0.14100
C1184       C  0.56193500  0.79400007  0.27107184    -0.20200
C1185       C  0.55620341  0.80559707  0.30455437    -0.06700
C1186       C  0.58377472  0.81106173  0.32568869     0.14100
C1187       C  0.57849947  0.82587212  0.36096869    -0.23600
H1188       H  0.63744743  0.80526785  0.33078982     0.15400
H1189       H  0.54046752  0.78983749  0.25504782     0.15400
C1190       C  0.59841985  0.77208972  0.22266784    -0.23500
H1191       H  0.60280522  0.82902504  0.37404449     0.05600
H1192       H  0.56326144  0.80980990  0.37658147     0.08900
H1193       H  0.56509376  0.85044632  0.35941600     0.08900
H1194       H  0.60751377  0.74581848  0.22209404     0.08900
H1195       H  0.61627945  0.78693966  0.20863827     0.08900
H1196       H  0.57408408  0.77366899  0.20896414     0.05600
C1197       C  0.78373617  0.61251725  0.24234806    -0.20200
C1198       C  0.75534726  0.62850518  0.22772017    -0.06700
C1199       C  0.73443768  0.60971426  0.20640758     0.14100
C1200       C  0.73912400  0.57532854  0.20544955    -0.20200
C1201       C  0.76477051  0.55943100  0.22398330    -0.06700
C1202       C  0.78912634  0.57830153  0.23991873     0.14100
C1203       C  0.82067757  0.56285680  0.25512386    -0.23600
H1204       H  0.80136482  0.62652308  0.25679163     0.15400
H1205       H  0.72091695  0.56087399  0.19246688     0.15400
C1206       C  0.70686822  0.62509860  0.18484976    -0.23500
H1207       H  0.84306056  0.57361239  0.24364818     0.05600
H1208       H  0.82330451  0.53589301  0.25016003     0.08900
H1209       H  0.82057560  0.56781537  0.28301815     0.08900
H1210       H  0.71723393  0.64432688  0.16890951     0.08900
H1211       H  0.68585964  0.63581120  0.20112832     0.08900
H1212       H  0.69604219  0.60669023  0.16737974     0.05600
C1213       C  0.70477975  0.92656113  0.31692115    -0.20200
C1214       C  0.72475652  0.94912075  0.30142964    -0.06700
C1215       C  0.74886911  0.93818305  0.27639935     0.14100
C1216       C  0.75371786  0.90454776  0.26877413    -0.20200
C1217       C  0.73552670  0.88137647  0.28590322    -0.06700
C1218       C  0.70979223  0.89266929  0.30957679     0.14100
C1219       C  0.68882179  0.86945666  0.32878925    -0.23600
H1220       H  0.68661095  0.93536608  0.33630412     0.15400
H1221       H  0.77289932  0.89622271  0.25021143     0.15400
C1222       C  0.77050917  0.96186012  0.25856842    -0.23500
H1223       H  0.67094060  0.88279135  0.34693721     0.05600
H1224       H  0.70542781  0.85245782  0.34364710     0.08900
H1225       H  0.67363227  0.85523416  0.31071506     0.08900
H1226       H  0.78666764  0.97433082  0.27712794     0.08900
H1227       H  0.75430586  0.98062715  0.24561460     0.08900
H1228       H  0.78738152  0.94912995  0.23909529     0.05600
C1229       C  0.27921276  0.74105923  0.11928548    -0.20200
C1230       C  0.25537403  0.72762102  0.14068962    -0.06700
C1231       C  0.22931192  0.71000359  0.12510549     0.14100
C1232       C  0.22704527  0.70788376  0.08917716    -0.20200
C1233       C  0.25005620  0.72271021  0.06806964    -0.06700
C1234       C  0.27683601  0.73908835  0.08359677     0.14100
C1235       C  0.30341045  0.75526089  0.06327404    -0.23600
H1236       H  0.29979640  0.75380352  0.13048462     0.15400
H1237       H  0.20624537  0.69586221  0.07751501     0.15400
C1238       C  0.20390858  0.69289119  0.14594656    -0.23500
H1239       H  0.30221239  0.78205733  0.06945182     0.05600
H1240       H  0.30066599  0.75183782  0.03541818     0.08900
H1241       H  0.32873401  0.74455563  0.06998077     0.08900
H1242       H  0.18829010  0.71119341  0.16151152     0.08900
H1243       H  0.21710597  0.67496053  0.16272937     0.08900
H1244       H  0.18652661  0.67917855  0.12963957     0.05600
C1245       C  0.37365280  0.80417487  0.30433979    -0.20200
C1246       C  0.37221103  0.78285599  0.27550254    -0.06700
C1247       C  0.40243332  0.77515138  0.25659722     0.14100
C1248       C  0.43301195  0.78669163  0.26852391    -0.20200
C1249       C  0.43451517  0.80542777  0.29887281    -0.06700
C1250       C  0.40440178  0.81510713  0.31638722     0.14100
C1251       C  0.40502050  0.83578719  0.34867365    -0.23600
H1252       H  0.35078709  0.81121400  0.31861112     0.15400
H1253       H  0.45639401  0.77853634  0.25568323     0.15400
C1254       C  0.40344404  0.75329461  0.22501866    -0.23500
H1255       H  0.37926091  0.84149661  0.35925664     0.05600
H1256       H  0.41653863  0.85935513  0.34341428     0.08900
H1257       H  0.42010159  0.82255631  0.36818856     0.08900
H1258       H  0.38713505  0.76458726  0.20523006     0.08900
H1259       H  0.39486516  0.72866118  0.23117219     0.08900
H1260       H  0.42931827  0.74971045  0.21406976     0.05600
C1261       C  0.22675647  0.61190303  0.23888972    -0.20200
C1262       C  0.25310350  0.62716255  0.22266928    -0.06700
C1263       C  0.27615555  0.60750941  0.20157665     0.14100
C1264       C  0.27472537  0.57319211  0.20114855    -0.20200
C1265       C  0.25079458  0.55817968  0.22069101    -0.06700
C1266       C  0.22510444  0.57767726  0.23783819     0.14100
C1267       C  0.19611986  0.56241623  0.25539015    -0.23600
H1268       H  0.20839366  0.62652533  0.25410480     0.15400
H1269       H  0.29399043  0.55796286  0.18758867     0.15400
C1270       C  0.30288737  0.62191134  0.17991729    -0.23500
H1271       H  0.17732780  0.58140782  0.26577118     0.05600
H1272       H  0.20510449  0.54739915  0.27690967     0.08900
H1273       H  0.18312077  0.54658398  0.23687976     0.08900
H1274       H  0.32262380  0.63214704  0.19617481     0.08900
H1275       H  0.29122574  0.64132777  0.16378520     0.08900
H1276       H  0.31575807  0.60300987  0.16267923     0.05600
C1277       C  0.28079227  0.88310918  0.31491878    -0.20200
C1278       C  0.26004624  0.87743770  0.28688883    -0.06700
C1279       C  0.25208917  0.90347457  0.26474300     0.14100
C1280       C  0.26304226  0.93501619  0.27265320    -0.20200
C1281       C  0.28149374  0.94110187  0.30223639    -0.06700
C1282       C  0.29135975  0.91461024  0.32298778     0.14100
C1283       C  0.31246237  0.91966058  0.35410133    -0.23600
H1284       H  0.28776662  0.86295314  0.33137278     0.15400
H1285       H  0.25507961  0.95551374  0.25702865     0.15400
C1286       C  0.23226485  0.89813715  0.23281390    -0.23500
H1287       H  0.31726982  0.89643956  0.36787315     0.05600
H1288       H  0.29955098  0.93790472  0.37197694     0.08900
H1289       H  0.33722893  0.92845486  0.34636734     0.08900
H1290       H  0.20657373  0.89081364  0.23933747     0.08900
H1291       H  0.24536221  0.87857213  0.21656633     0.08900
H1292       H  0.22958514  0.92082377  0.21778999     0.05600
C1293       C  0.23105459  0.72549951  0.41780241    -0.20200
C1294       C  0.21933595  0.74950243  0.44214276    -0.06700
C1295       C  0.20779445  0.78070380  0.43066610     0.14100
C1296       C  0.21006297  0.78767086  0.39571985    -0.20200
C1297       C  0.22424407  0.76441367  0.37170758    -0.06700
C1298       C  0.23319361  0.73232002  0.38288016     0.14100
C1299       C  0.24470918  0.70496663  0.35816564    -0.23600
H1300       H  0.24044982  0.70169207  0.42645314     0.15400
H1301       H  0.20214771  0.81201044  0.38735514     0.15400
C1302       C  0.19510143  0.80739608  0.45555490    -0.23500
H1303       H  0.24840436  0.68107004  0.37095856     0.05600
H1304       H  0.26911434  0.71039389  0.34627159     0.08900
H1305       H  0.22545421  0.70213434  0.33816117     0.08900
H1306       H  0.21521683  0.81297023  0.47385054     0.08900
H1307       H  0.17284622  0.79926816  0.46960190     0.08900
H1308       H  0.18740704  0.83045481  0.44255965     0.05600
C1309       C  0.12383017  0.71119005  0.49479135    -0.20200
C1310       C  0.10308453  0.73424762  0.51368017    -0.06700
C1311       C  0.11875587  0.75981245  0.53179480     0.14100
C1312       C  0.15398165  0.76226398  0.52935216    -0.20200
C1313       C  0.17457497  0.73989303  0.50958479    -0.06700
C1314       C  0.15916767  0.71330776  0.49297665     0.14100
C1315       C  0.17916108  0.68580693  0.47436036    -0.23600
H1316       H  0.11241520  0.69117074  0.48131977     0.15400
H1317       H  0.16544562  0.78227415  0.54254019     0.15400
C1318       C  0.09879778  0.78430918  0.55456135    -0.23500
H1319       H  0.17336024  0.68638040  0.44680882     0.05600
H1320       H  0.17214096  0.66185323  0.48432037     0.08900
H1321       H  0.20667019  0.68690086  0.47779112     0.08900
H1322       H  0.08396529  0.77114575  0.57341964     0.08900
H1323       H  0.08165950  0.80025383  0.53918487     0.08900
H1324       H  0.11543467  0.80065542  0.56886091     0.05600
C1325       C  0.08886854  0.68148905  0.27583628    -0.20200
C1326       C  0.06044553  0.70354459  0.27987314    -0.06700
C1327       C  0.06421969  0.73744504  0.27513193     0.14100
C1328       C  0.09619697  0.74822830  0.26711273    -0.20200
C1329       C  0.12449777  0.72613652  0.26302467    -0.06700
C1330       C  0.12069987  0.69227083  0.26723924     0.14100
C1331       C  0.15016121  0.66749840  0.26363934    -0.23600
H1332       H  0.08603989  0.65545098  0.27906861     0.15400
H1333       H  0.09922760  0.77427881  0.26411980     0.15400
C1334       C  0.03479653  0.76241832  0.27730102    -0.23500
H1335       H  0.14280487  0.64218517  0.26874996     0.05600
H1336       H  0.17005554  0.67372602  0.28196672     0.08900
H1337       H  0.16044874  0.66747374  0.23729126     0.08900
H1338       H  0.02547688  0.76496244  0.30386253     0.08900
H1339       H  0.01435848  0.75489248  0.26022448     0.08900
H1340       H  0.04203135  0.78712862  0.26967101     0.05600
C1341       C  0.93246599  0.71252510  0.25689274    -0.20200
C1342       C  0.93938549  0.69755644  0.28807335    -0.06700
C1343       C  0.91283181  0.69289251  0.31109730     0.14100
C1344       C  0.87995105  0.70429237  0.30275231    -0.20200
C1345       C  0.87315074  0.71899541  0.27139618    -0.06700
C1346       C  0.89962203  0.72304627  0.24817765     0.14100
C1347       C  0.89332240  0.73920177  0.21463594    -0.23600
H1348       H  0.95298215  0.71555067  0.23905984     0.15400
H1349       H  0.85946730  0.70195395  0.32079673     0.15400
C1350       C  0.91914782  0.67586176  0.34411980    -0.23500
H1351       H  0.91695858  0.74057598  0.19954911     0.05600
H1352       H  0.88227516  0.76462119  0.21909270     0.08900
H1353       H  0.87556697  0.72486871  0.19943193     0.08900
H1354       H  0.93684711  0.68967892  0.35984289     0.08900
H1355       H  0.93024177  0.65058164  0.33890157     0.08900
H1356       H  0.89547667  0.67407042  0.35905609     0.05600
C1357       C  0.02723183  0.69618783  0.35796508    -0.20200
C1358       C  0.00383832  0.71339941  0.33753858    -0.06700
C1359       C  0.98293429  0.73915831  0.35306296     0.14100
C1360       C  0.98407381  0.74486130  0.38872143    -0.20200
C1361       C  0.00602725  0.72586975  0.40924592    -0.06700
C1362       C  0.02882540  0.70209678  0.39316340     0.14100
C1363       C  0.05516042  0.68251367  0.41282971    -0.23600
H1364       H  0.04352915  0.67667550  0.34644080     0.15400
H1365       H  0.96697737  0.76354282  0.40061348     0.15400
C1366       C  0.95957935  0.76125183  0.33284918    -0.23500
H1367       H  0.07301030  0.66790089  0.39566194     0.05600
H1368       H  0.04313422  0.66485089  0.42940144     0.08900
H1369       H  0.07007942  0.69939557  0.42844806     0.08900
H1370       H  0.93304352  0.75797531  0.34053597     0.08900
H1371       H  0.96246996  0.75643544  0.30510804     0.08900
H1372       H  0.96535415  0.78727209  0.33786042     0.05600
C1373       C  0.01340362  0.69304810  0.66754090    -0.20200
C1374       C  0.99728850  0.71779214  0.68811996    -0.06700
C1375       C  0.98369713  0.74650738  0.67261666     0.14100
C1376       C  0.98525959  0.74895833  0.63682152    -0.20200
C1377       C  0.00028561  0.72347581  0.61587304    -0.06700
C1378       C  0.01490343  0.69514327  0.63194394     0.14100
C1379       C  0.03247576  0.66668253  0.61225948    -0.23600
H1380       H  0.02407889  0.67130033  0.67961730     0.15400
H1381       H  0.97436619  0.77089431  0.62524506     0.15400
C1382       C  0.96837332  0.77533896  0.69315011    -0.23500
H1383       H  0.04432724  0.64816569  0.62933098     0.05600
H1384       H  0.05276854  0.67566794  0.59592369     0.08900
H1385       H  0.01403981  0.65375775  0.59654029     0.08900
H1386       H  0.98143253  0.79781180  0.68685369     0.08900
H1387       H  0.97078014  0.77202846  0.72089862     0.08900
H1388       H  0.94124494  0.77911314  0.68695567     0.05600
C1389       C  0.79205190  0.76558649  0.42802480    -0.20200
C1390       C  0.78659656  0.73208544  0.43128601    -0.06700
C1391       C  0.77927569  0.71291317  0.40217504     0.14100
C1392       C  0.77383734  0.72839213  0.37128126    -0.20200
C1393       C  0.77572440  0.76249401  0.36877482    -0.06700
C1394       C  0.78636845  0.78120404  0.39704456     0.14100
C1395       C  0.78906167  0.81787494  0.39548459    -0.23600
H1396       H  0.79704239  0.78028253  0.45062394     0.15400
H1397       H  0.76734505  0.71386293  0.34903568     0.15400
C1398       C  0.77561412  0.67635761  0.40394951    -0.23500
H1399       H  0.79546812  0.82882259  0.42060158     0.05600
H1400       H  0.76462516  0.82966227  0.38744550     0.08900
H1401       H  0.80918502  0.82355593  0.37716713     0.08900
H1402       H  0.75592900  0.67084793  0.42280777     0.08900
H1403       H  0.79997362  0.66405353  0.41111743     0.08900
H1404       H  0.76844327  0.66555435  0.37901077     0.05600
C1405       C  0.84113894  0.75159837  0.51617595    -0.20200
C1406       C  0.82740950  0.72478712  0.49936033    -0.06700
C1407       C  0.84949066  0.69791717  0.48842757     0.14100
C1408       C  0.88449658  0.69933152  0.49290637    -0.20200
C1409       C  0.89856704  0.72659258  0.50870890    -0.06700
C1410       C  0.87621562  0.75293008  0.52108647     0.14100
C1411       C  0.88873209  0.78230446  0.54021714    -0.23600
H1412       H  0.82419390  0.77181603  0.52519174     0.15400
H1413       H  0.90097246  0.67878823  0.48374028     0.15400
C1414       C  0.83714144  0.66667101  0.47310110    -0.23500
H1415       H  0.86760039  0.79898501  0.55017142     0.05600
H1416       H  0.90411628  0.79684033  0.52313120     0.08900
H1417       H  0.90395924  0.77402680  0.56225832     0.08900
H1418       H  0.80933927  0.66657903  0.47221814     0.08900
H1419       H  0.84601105  0.64558819  0.48863815     0.08900
H1420       H  0.84763126  0.66284357  0.44694041     0.05600
C1421       C  0.11611123  0.69292989  0.74613362    -0.20200
C1422       C  0.12523154  0.72521597  0.74156609    -0.06700
C1423       C  0.10007036  0.74999145  0.73376774     0.14100
C1424       C  0.06636285  0.74184739  0.73197701    -0.20200
C1425       C  0.05721365  0.70994424  0.73821734    -0.06700
C1426       C  0.08234932  0.68495788  0.74452263     0.14100
C1427       C  0.07368782  0.64984488  0.74943832    -0.23600
H1428       H  0.13546507  0.67390920  0.75126135     0.15400
H1429       H  0.04677332  0.76091154  0.72778166     0.15400
C1430       C  0.10799482  0.78545182  0.72935349    -0.23500
H1431       H  0.09665596  0.63331554  0.75227354     0.05600
H1432       H  0.05971952  0.64096017  0.72701804     0.08900
H1433       H  0.05799249  0.64788618  0.77265672     0.08900
H1434       H  0.12382963  0.78780410  0.70625115     0.08900
H1435       H  0.12131189  0.79463339  0.75209238     0.08900
H1436       H  0.08478994  0.80157970  0.72621470     0.05600
C1437       C  0.21897207  0.59932347  0.76026581    -0.20200
C1438       C  0.24791533  0.61223067  0.77455020    -0.06700
C1439       C  0.27181421  0.58992160  0.79017665     0.14100
C1440       C  0.26727042  0.55597961  0.78847831    -0.20200
C1441       C  0.23994946  0.54321163  0.77161897    -0.06700
C1442       C  0.21462412  0.56530209  0.75877074     0.14100
C1443       C  0.18278331  0.55379274  0.74301512    -0.23600
H1444       H  0.19987809  0.61572577  0.74920609     0.15400
H1445       H  0.28671758  0.53908331  0.79810993     0.15400
C1446       C  0.30306848  0.60077381  0.80782028    -0.23500
H1447       H  0.16056334  0.56619277  0.75630101     0.05600
H1448       H  0.18044774  0.52693576  0.74505159     0.08900
H1449       H  0.18210198  0.56018750  0.71574673     0.08900
H1450       H  0.29599288  0.61910565  0.82842573     0.08900
H1451       H  0.32038625  0.61121731  0.78917718     0.08900
H1452       H  0.31741013  0.57996349  0.81973551     0.05600
C1453       C  0.42523298  0.77714519  0.71193139    -0.20200
C1454       C  0.44803414  0.76203874  0.73423733    -0.06700
C1455       C  0.43611230  0.74729079  0.76375855     0.14100
C1456       C  0.40149021  0.74647277  0.76924576    -0.20200
C1457       C  0.37821855  0.75838077  0.74518901    -0.06700
C1458       C  0.39033523  0.77505957  0.71657538     0.14100
C1459       C  0.36729868  0.78946985  0.68992731    -0.23600
H1460       H  0.43485543  0.78815848  0.68926718     0.15400
H1461       H  0.39288319  0.73435361  0.79167242     0.15400
C1462       C  0.45903195  0.73041707  0.78915339    -0.23500
H1463       H  0.38140586  0.80219015  0.67014607     0.05600
H1464       H  0.34895419  0.80781737  0.70203961     0.08900
H1465       H  0.35387123  0.76968567  0.67682092     0.08900
H1466       H  0.45469428  0.74228739  0.81468846     0.08900
H1467       H  0.48615819  0.73135049  0.78278472     0.08900
H1468       H  0.45327503  0.70412497  0.79043554     0.05600
C1469       C  0.22907896  0.78921688  0.62027254    -0.20200
C1470       C  0.23487802  0.76259209  0.64179339    -0.06700
C1471       C  0.23475485  0.73026616  0.62757443     0.14100
C1472       C  0.23031376  0.72553455  0.59218740    -0.20200
C1473       C  0.22586639  0.75224987  0.57046073    -0.06700
C1474       C  0.22530038  0.78453971  0.58495442     0.14100
C1475       C  0.22226781  0.81478347  0.56369779    -0.23600
H1476       H  0.22855487  0.81405470  0.63097217     0.15400
H1477       H  0.23198337  0.70082290  0.58115343     0.15400
C1478       C  0.23889859  0.70068697  0.64966261    -0.23500
H1479       H  0.19984558  0.83047735  0.57224742     0.05600
H1480       H  0.21941090  0.80897131  0.53624873     0.08900
H1481       H  0.24513551  0.82896171  0.56685124     0.08900
H1482       H  0.21899131  0.70196288  0.66976578     0.08900
H1483       H  0.26407479  0.69989024  0.66167114     0.08900
H1484       H  0.23685011  0.67737787  0.63472809     0.05600
C1485       C  0.27657985  0.71129663  0.88985535    -0.20200
C1486       C  0.24885379  0.71534418  0.86784442    -0.06700
C1487       C  0.21595321  0.71829831  0.88275373     0.14100
C1488       C  0.21215648  0.71820528  0.91852490    -0.20200
C1489       C  0.24003693  0.71515058  0.94011426    -0.06700
C1490       C  0.27261419  0.71157035  0.92545028     0.14100
C1491       C  0.30349557  0.70984413  0.94740395    -0.23600
H1492       H  0.30189722  0.70857047  0.87929364     0.15400
H1493       H  0.18723565  0.72207539  0.92991014     0.15400
C1494       C  0.18460200  0.72268914  0.86166830    -0.23500
H1495       H  0.32712063  0.70818468  0.93196705     0.05600
H1496       H  0.30332530  0.68773150  0.96316462     0.08900
H1497       H  0.30382744  0.73217186  0.96419722     0.08900
H1498       H  0.18211145  0.70079268  0.84467041     0.08900
H1499       H  0.18575541  0.74513142  0.84638241     0.08900
H1500       H  0.16142525  0.72555208  0.87775154     0.05600
C1501       C  0.25548775  0.88403679  0.78045727    -0.20200
C1502       C  0.26267360  0.86675674  0.74970378    -0.06700
C1503       C  0.27503783  0.88372500  0.72172319     0.14100
C1504       C  0.27731271  0.91808657  0.72441548    -0.20200
C1505       C  0.26713426  0.93570187  0.75428947    -0.06700
C1506       C  0.25785667  0.91820436  0.78317633     0.14100
C1507       C  0.24878667  0.93520153  0.81680452    -0.23600
H1508       H  0.24651160  0.87097936  0.80212844     0.15400
H1509       H  0.28396619  0.93150021  0.70214899     0.15400
C1510       C  0.28300843  0.86611176  0.68820443    -0.23500
H1511       H  0.26498958  0.92446548  0.83699950     0.05600
H1512       H  0.22198494  0.93162957  0.82321650     0.08900
H1513       H  0.25257127  0.96196203  0.81670106     0.08900
H1514       H  0.26028738  0.85433660  0.67862674     0.08900
H1515       H  0.30357025  0.84696724  0.69153465     0.08900
H1516       H  0.29131622  0.88318967  0.66866345     0.05600
C1517       C  0.63090964  0.75746524  0.71265440    -0.20200
C1518       C  0.63826955  0.76380163  0.74714192    -0.06700
C1519       C  0.61117954  0.77211459  0.77020170     0.14100
C1520       C  0.57795691  0.77259504  0.75831641    -0.20200
C1521       C  0.57099707  0.76511817  0.72423131    -0.06700
C1522       C  0.59774556  0.75810041  0.70098209     0.14100
C1523       C  0.59133528  0.75139210  0.66375924    -0.23600
H1524       H  0.65122558  0.75164773  0.69451635     0.15400
H1525       H  0.55720910  0.77713891  0.77616498     0.15400
C1526       C  0.61658827  0.78055848  0.80724268    -0.23500
H1527       H  0.57740725  0.72876303  0.66024178     0.05600
H1528       H  0.57630810  0.77250370  0.65323219     0.08900
H1529       H  0.61521429  0.74790927  0.64883681     0.08900
H1530       H  0.63247877  0.80203235  0.80960293     0.08900
H1531       H  0.62883214  0.75911877  0.82002659     0.08900
H1532       H  0.59243044  0.78713130  0.82091015     0.05600
C1533       C  0.73560271  0.59423082  0.76213845    -0.20200
C1534       C  0.75921032  0.61468449  0.77630947    -0.06700
C1535       C  0.78529435  0.60107571  0.79682908     0.14100
C1536       C  0.79014152  0.56676359  0.79801459    -0.20200
C1537       C  0.76934367  0.54652557  0.77945756    -0.06700
C1538       C  0.74029800  0.56014417  0.76355387     0.14100
C1539       C  0.71511686  0.53886618  0.74662892    -0.23600
H1540       H  0.71479886  0.60491646  0.74770081     0.15400
H1541       H  0.81195265  0.55581470  0.81072248     0.15400
C1542       C  0.80964741  0.62222706  0.81509222    -0.23500
H1543       H  0.69386725  0.55385068  0.73565696     0.05600
H1544       H  0.70440494  0.52271486  0.76569270     0.08900
H1545       H  0.72717338  0.52357279  0.72565501     0.08900
H1546       H  0.79568827  0.63907956  0.83364687     0.08900
H1547       H  0.82332979  0.63678499  0.79652631     0.08900
H1548       H  0.82864497  0.60721302  0.82939682     0.05600
C1549       C  0.77846170  0.71069420  0.61140329    -0.20200
C1550       C  0.76323776  0.73972756  0.62643111    -0.06700
C1551       C  0.75180538  0.76553645  0.60545131     0.14100
C1552       C  0.75617662  0.76152022  0.57009155    -0.20200
C1553       C  0.77074171  0.73214665  0.55541147    -0.06700
C1554       C  0.78178231  0.70633241  0.57627415     0.14100
C1555       C  0.79523285  0.67317996  0.56253486    -0.23600
H1556       H  0.78680745  0.69041230  0.62715258     0.15400
H1557       H  0.74677363  0.78080260  0.55359670     0.15400
C1558       C  0.73485357  0.79698199  0.61985603    -0.23500
H1559       H  0.82133651  0.66811193  0.57161691     0.05600
H1560       H  0.79567570  0.67133733  0.53444612     0.08900
H1561       H  0.77910170  0.65383113  0.57180396     0.08900
H1562       H  0.75184552  0.80888713  0.63807139     0.08900
H1563       H  0.71100095  0.79165730  0.63301242     0.08900
H1564       H  0.72846463  0.81472714  0.59962481     0.05600
C1565       C  0.79202037  0.71667981  0.89393301    -0.20200
C1566       C  0.75848282  0.72353627  0.88396174    -0.06700
C1567       C  0.73212882  0.72087244  0.90813660     0.14100
C1568       C  0.74029613  0.71375044  0.94190825    -0.20200
C1569       C  0.77392857  0.71048416  0.95226213    -0.06700
C1570       C  0.80007966  0.71075794  0.92783192     0.14100
C1571       C  0.83677604  0.70641104  0.93701345    -0.23600
H1572       H  0.81242976  0.71783863  0.87556542     0.15400
H1573       H  0.72039819  0.71382307  0.96100086     0.15400
C1574       C  0.69548383  0.72613778  0.89903372    -0.23500
H1575       H  0.84862906  0.68495770  0.92248447     0.05600
H1576       H  0.84055526  0.70209586  0.96444934     0.08900
H1577       H  0.84986161  0.72877622  0.93038299     0.08900
H1578       H  0.68947965  0.70935560  0.87751088     0.08900
H1579       H  0.68986909  0.75206171  0.89203266     0.08900
H1580       H  0.67858330  0.72110012  0.92072016     0.05600
C1581       C  0.71237546  0.86932118  0.70121026    -0.20200
C1582       C  0.71811837  0.86382340  0.73588561    -0.06700
C1583       C  0.71821337  0.89100005  0.75913589     0.14100
C1584       C  0.71498840  0.92280826  0.74668293    -0.20200
C1585       C  0.71062088  0.92814632  0.71201007    -0.06700
C1586       C  0.70864462  0.90130965  0.68900753     0.14100
C1587       C  0.70354134  0.90654679  0.65159706    -0.23600
H1588       H  0.71156277  0.84853109  0.68350631     0.15400
H1589       H  0.71787558  0.94369172  0.76385910     0.15400
C1590       C  0.72367375  0.88701061  0.79674828    -0.23500
H1591       H  0.70197430  0.88287323  0.63718068     0.05600
H1592       H  0.72490918  0.91954290  0.64096932     0.08900
H1593       H  0.67972922  0.92158861  0.64784488     0.08900
H1594       H  0.74771447  0.87252282  0.80100058     0.08900
H1595       H  0.70234349  0.87449085  0.80809143     0.08900
H1596       H  0.72503015  0.91109548  0.81043966     0.05600
C1597       C  0.88050780  0.68544481  0.72181943    -0.20200
C1598       C  0.86096879  0.70969289  0.74076470    -0.06700
C1599       C  0.87710073  0.73734440  0.75411823     0.14100
C1600       C  0.91216738  0.73846038  0.75054067    -0.20200
C1601       C  0.93164828  0.71298034  0.73399060    -0.06700
C1602       C  0.91559393  0.68668618  0.71847477     0.14100
C1603       C  0.93559618  0.65902335  0.70002554    -0.23600
H1604       H  0.86854082  0.66460513  0.71054420     0.15400
H1605       H  0.92488671  0.75828640  0.76293845     0.15400
C1606       C  0.85809011  0.76564478  0.77260326    -0.23500
H1607       H  0.91913206  0.63983870  0.69026329     0.05600
H1608       H  0.95421472  0.64718341  0.71738588     0.08900
H1609       H  0.94899122  0.66879131  0.67795210     0.08900
H1610       H  0.84661409  0.75708999  0.79639068     0.08900
H1611       H  0.83824273  0.77648121  0.75592219     0.08900
H1612       H  0.87487586  0.78550123  0.77987338     0.05600
loop_ 
_geom_bond_atom_site_label_1 
_geom_bond_atom_site_label_2 
_geom_bond_distance 
_geom_bond_site_symmetry_2 
_ccdc_geom_bond_type 
O1           Ni7   1.897       .  S
O1           C22   1.262       .  A
O2          Ni25   1.876       .  S
O2           C11   1.265       .  A
O3           Ni7   1.876       .  S
O3          Ni25   1.873       .  S
O3          Ni19   1.909       .  S
O3           H26   0.967       .  S
C4           O21   1.279       .  A
C4           O13   1.282       .  A
C4         C1582   1.475       .  S
O5          Ni24   1.957       .  S
O5           C11   1.281       .  A
O6          Ni24   1.915       .  S
O6            C8   1.270       .  A
Ni7          O10   1.904       .  S
Ni7          O12   1.900       .  S
C8           O18   1.271       .  A
C8         C1518   1.489       .  S
O9          Ni25   1.925       .  S
O9           C15   1.276       .  A
O10          C15   1.277       .  A
C11        C1566   1.484       .  S
O12          C14   1.264       .  A
O13         Ni24   1.941       .  S
C14          O20   1.271       .  A
C14        C1598   1.492       .  S
C15        C1534   1.469       .  S
H16          O17   0.962       .  S
O17         Ni25   1.894       .  S
O17         Ni19   1.897       .  S
O17         Ni24   1.888       .  S
O18         Ni19   1.920       .  S
Ni19         O23   1.926       .  S
Ni19         O21   1.900       .  S
O20         Ni25   1.932       .  S
C22          O23   1.273       .  A
C22        C1550   1.476       .  S
O27         Ni33   1.939       .  S
O27          C48   1.279       .  A
O28         Ni51   1.916       .  S
O28          C37   1.276       .  A
O29         Ni33   1.879       .  S
O29         Ni51   1.889       .  S
O29         Ni45   1.901       .  S
O29          H52   0.964       .  S
C30          O47   1.278       .  A
C30          O39   1.275       .  A
C30        C1502   1.480       .  S
O31         Ni50   1.909       .  S
O31          C37   1.266       .  A
O32         Ni50   1.918       .  S
O32          C34   1.268       .  A
Ni33         O36   1.928       .  S
Ni33         O38   1.911       .  S
C34          O44   1.275       .  A
C34        C1470   1.494       .  S
O35         Ni51   1.934       .  S
O35          C41   1.287       .  A
O36          C41   1.279       .  A
C37        C1422   1.473       .  S
O38          C40   1.271       .  A
O39         Ni50   1.917       .  S
C40          O46   1.275       .  A
C40        C1486   1.510       .  S
C41        C1438   1.504       .  S
H42          O43   0.966       .  S
O43         Ni51   1.923       .  S
O43         Ni45   1.885       .  S
O43         Ni50   1.889       .  S
O44         Ni45   1.945       .  S
Ni45         O49   1.886       .  S
Ni45         O47   1.941       .  S
O46         Ni51   1.947       .  S
C48          O49   1.266       .  A
C48        C1457   1.487       .  S
N53          C57   1.358       .  A
N53          C54   1.358       .  A
N53        C1406   1.453       .  S
C54        C1553   1.463       .  S
C54          C55   1.377       .  A
C55          C56   1.364       .  A
C55          H58   1.082       .  S
C56          C57   1.383       .  A
C56          H59   1.083       .  S
C57        C1390   1.467       .  S
N60          C64   1.360       .  A
N60          C61   1.360   1_655  A
N60        C1374   1.451       .  S
C61        C1425   1.470       .  S
C61          C62   1.380       .  A
C62          C63   1.365   1_455  A
C62          H65   1.082       .  S
C63          C64   1.380       .  A
C63          H66   1.082       .  S
C64        C1601   1.470       .  S
N67          C71   1.365   1_455  A
N67          C68   1.366       .  A
N67        C1358   1.457       .  S
C68        C1326   1.488       .  S
C68          C69   1.379       .  A
C69          C70   1.362   1_455  A
C69          H72   1.082       .  S
C70          C71   1.383       .  A
C70          H73   1.083       .  S
C71        C1342   1.475       .  S
O74         Ni82   1.945   1_655  S
O74          C84   1.288       .  A
O75         Ni82   1.951       .  S
O75          C85   1.289       .  A
O76         Ni82   1.902       .  S
O76          C86   1.275   1_455  A
O77         Ni82   1.897       .  S
O77          C87   1.275       .  A
O78         Ni83   1.959       .  S
O78          C87   1.290   1_655  A
O79         Ni83   1.959       .  S
O79          C86   1.291       .  A
O80         Ni83   1.918   1_455  S
O80          C85   1.279       .  A
O81         Ni83   1.916       .  S
O81          C84   1.278       .  A
Ni82        Ni83   2.377   1_455  S
C84        C1409   1.504       .  S
C85        C1310   1.504       .  S
C86        C1377   1.507   1_655  S
C87        C1361   1.496       .  S
N88          C92   1.372       .  A
N88          C89   1.372       .  A
N88        C1313   1.457       .  S
C89        C1473   1.492       .  S
C89          C90   1.379       .  A
C90          C91   1.367       .  A
C90          H93   1.082       .  S
C91          C92   1.381       .  A
C91          H94   1.082       .  S
C92        C1294   1.495       .  S
O95        Ni101   1.919       .  S
O95         C116   1.272       .  A
O96        Ni119   1.890       .  S
O96         C105   1.268       .  A
O97        Ni101   1.909       .  S
O97        Ni119   1.903       .  S
O97        Ni113   1.929       .  S
O97         H120   0.967       .  S
C98         O115   1.285       .  A
C98         O107   1.280       .  A
C98        C1262   1.488       .  S
O99        Ni118   1.961       .  S
O99         C105   1.282       .  A
O100       Ni118   1.923       .  S
O100        C102   1.275       .  A
Ni101       O104   1.934       .  S
Ni101       O106   1.926       .  S
C102        O112   1.277       .  A
C102       C1230   1.510       .  S
O103       Ni119   1.906       .  S
O103        C109   1.267       .  A
O104        C109   1.274       .  A
C105       C1246   1.501       .  S
O106        C108   1.272       .  A
O107       Ni118   1.928       .  S
C108        O114   1.279       .  A
C108       C1297   1.503       .  S
C109       C1278   1.483       .  S
H110        O111   0.966       .  S
O111       Ni119   1.881       .  S
O111       Ni113   1.887       .  S
O111       Ni118   1.886       .  S
O112       Ni113   1.948       .  S
Ni113       O117   1.918       .  S
Ni113       O115   1.920       .  S
O114       Ni119   1.948       .  S
C116        O117   1.275       .  A
C116       C1329   1.480       .  S
O121       Ni127   1.950       .  S
O121        C142   1.279       .  A
O122       Ni145   1.916       .  S
O122        C131   1.273       .  A
O123       Ni127   1.877       .  S
O123       Ni145   1.887       .  S
O123       Ni139   1.888       .  S
O123        H146   0.967       .  S
C124        O141   1.271       .  A
C124        O133   1.276       .  A
C124       C1217   1.485       .  S
O125       Ni144   1.918       .  S
O125        C131   1.268       .  A
O126       Ni144   1.905       .  S
O126        C128   1.264       .  A
Ni127       O130   1.933       .  S
Ni127       O132   1.907       .  S
C128        O138   1.271       .  A
C128       C1393   1.471       .  S
O129       Ni145   1.911       .  S
O129        C135   1.282       .  A
O130        C135   1.281       .  A
C131       C1345   1.467       .  S
O132        C134   1.270       .  A
O133       Ni144   1.915       .  S
C134        O140   1.274       .  A
C134       C1169   1.487       .  S
C135       C1198   1.489       .  S
H136        O137   0.966       .  S
O137       Ni145   1.918       .  S
O137       Ni139   1.896       .  S
O137       Ni144   1.903       .  S
O138       Ni139   1.919       .  S
Ni139       O143   1.891       .  S
Ni139       O141   1.917       .  S
O140       Ni145   1.929       .  S
C142        O143   1.269       .  A
C142       C1182   1.495       .  S
N147        C151   1.362       .  A
N147        C148   1.358   1_554  A
N147       C1150   1.451       .  S
C148       C1569   1.469       .  S
C148        C149   1.379       .  A
C149        C150   1.365   1_556  A
C149        H152   1.082       .  S
C150        C151   1.381       .  A
C150        H153   1.082       .  S
C151       C1166   1.473       .  S
N154        C158   1.357       .  A
N154        C155   1.350       .  A
N154       C1134   1.446       .  S
C155       C1537   1.462       .  S
C155        C156   1.380       .  A
C156        C157   1.367       .  A
C156        H159   1.082       .  S
C157        C158   1.381       .  A
C157        H160   1.083       .  S
C158       C1118   1.467       .  S
N161        C165   1.357   1_556  A
N161        C162   1.359       .  A
N161       C1102   1.448       .  S
C162       C1089   1.471       .  S
C162        C163   1.378       .  A
C163        C164   1.367   1_556  A
C163        H166   1.082       .  S
C164        C165   1.383       .  A
C164        H167   1.082       .  S
C165       C1073   1.473       .  S
O168       Ni176   1.926       .  S
O168        C178   1.284       .  A
O169       Ni176   1.930   1_556  S
O169        C179   1.283       .  A
O170       Ni176   1.939   1_556  S
O170        C180   1.285       .  A
O171       Ni176   1.942       .  S
O171        C181   1.286       .  A
O172       Ni177   1.921       .  S
O172        C181   1.281       .  A
O173       Ni177   1.917   1_556  S
O173        C180   1.282       .  A
O174       Ni177   1.922   1_556  S
O174        C179   1.283       .  A
O175       Ni177   1.919       .  S
O175        C178   1.281       .  A
Ni176      Ni177   2.376       .  S
C178       C1057   1.502       .  S
C179       C1137   1.503       .  S
C180       C1105   1.500       .  S
C181       C1153   1.507       .  S
N182        C186   1.355       .  A
N182        C183   1.355       .  A
N182       C1054   1.441       .  S
C183       C1201   1.476       .  S
C183        C184   1.383       .  A
C184        C185   1.370       .  A
C184        H187   1.082       .  S
C185        C186   1.381       .  A
C185        H188   1.082       .  S
C186       C1038   1.471       .  S
O189       Ni195   1.920       .  S
O189        C210   1.271       .  A
O190       Ni213   1.898       .  S
O190        C199   1.268       .  A
O191       Ni195   1.900       .  S
O191       Ni213   1.900       .  S
O191       Ni207   1.921       .  S
O191        H214   0.967       .  S
C192        O209   1.283       .  A
C192        O201   1.280       .  A
C192        C990   1.490       .  S
O193       Ni212   1.928       .  S
O193        C199   1.272       .  A
O194       Ni212   1.905       .  S
O194        C196   1.266       .  A
Ni195       O198   1.923       .  S
Ni195       O200   1.917       .  S
C196        O206   1.280       .  A
C196       C1022   1.512       .  S
O197       Ni213   1.912       .  S
O197        C203   1.270       .  A
O198        C203   1.276       .  A
C199       C1041   1.468       .  S
O200        C202   1.268       .  A
O201       Ni212   1.914       .  S
C202        O208   1.281       .  A
C202       C1006   1.503       .  S
C203       C1070   1.473       .  S
H204        O205   0.968       .  S
O205       Ni213   1.887       .  S
O205       Ni207   1.885       .  S
O205       Ni212   1.880       .  S
O206       Ni207   1.963       .  S
Ni207       O211   1.905       .  S
Ni207       O209   1.922       .  S
O208       Ni213   1.958       .  S
C210        O211   1.273       .  A
C210        C974   1.465       .  S
O215       Ni221   1.930       .  S
O215        C236   1.273       .  A
O216       Ni239   1.889       .  S
O216        C225   1.266       .  A
O217       Ni221   1.893       .  S
O217       Ni239   1.882       .  S
O217       Ni233   1.880       .  S
O217        H240   0.966       .  S
C218        O235   1.255       .  A
C218        O227   1.265       .  A
C218        C910   1.468       .  S
O219       Ni238   1.895       .  S
O219        C225   1.265       .  A
O220       Ni238   1.879       .  S
O220        C222   1.267       .  A
Ni221       O224   1.915       .  S
Ni221       O226   1.898       .  S
C222        O232   1.288       .  A
C222        C926   1.474       .  S
O223       Ni239   1.909       .  S
O223        C229   1.275       .  A
O224        C229   1.277       .  A
C225        C958   1.448       .  S
O226        C228   1.269       .  A
O227       Ni238   1.927       .  S
C228        O234   1.272       .  A
C228       C1086   1.495       .  S
C229       C1121   1.482       .  S
H230        O231   0.967       .  S
O231       Ni239   1.939       .  S
O231       Ni233   1.896       .  S
O231       Ni238   1.918       .  S
O232       Ni233   1.969       .  S
Ni233       O237   1.877       .  S
Ni233       O235   1.894       .  S
O234       Ni239   1.933       .  S
C236        O237   1.260       .  A
C236        C942   1.455       .  S
N241        C245   1.357   1_565  A
N241        C242   1.355       .  A
N241        C897   1.446       .  S
C242       C1585   1.464       .  S
C242        C243   1.379       .  A
C243        C244   1.367   1_565  A
C243        H246   1.082       .  S
C244        C245   1.383       .  A
C244        H247   1.083       .  S
C245        C913   1.472       .  S
N248        C252   1.354       .  A
N248        C249   1.357       .  A
N248        C878   1.448       .  S
C249       C1521   1.470       .  S
C249        C250   1.383       .  A
C250        C251   1.366       .  A
C250        H253   1.082       .  S
C251        C252   1.379       .  A
C251        H254   1.082       .  S
C252       C1454   1.464       .  S
N255        C259   1.363   1_565  A
N255        C256   1.360       .  A
N255        C862   1.445       .  S
C256       C1505   1.482       .  S
C256        C257   1.381       .  A
C257        C258   1.369   1_565  A
C257        H260   1.082       .  S
C258        C259   1.383       .  A
C258        H261   1.082       .  S
C259        C846   1.484       .  S
O262       Ni270   1.936       .  S
O262        C272   1.285       .  A
O263       Ni270   1.938       .  S
O263        C273   1.285       .  A
O264       Ni270   1.911       .  S
O264        C274   1.280       .  A
O265       Ni270   1.900   1_545  S
O265        C275   1.276       .  A
O266       Ni271   1.938   1_545  S
O266        C275   1.285       .  A
O267       Ni271   1.943       .  S
O267        C274   1.287       .  A
O268       Ni271   1.920       .  S
O268        C273   1.282       .  A
O269       Ni271   1.912       .  S
O269        C272   1.281       .  A
Ni270      Ni271   2.378       .  S
C272        C894   1.502       .  S
C273        C865   1.509       .  S
C274        C881   1.504       .  S
C275        C830   1.480       .  S
N276        C280   1.357       .  A
N276        C277   1.359       .  A
N276        C833   1.454       .  S
C277        C945   1.468       .  S
C277        C278   1.387       .  A
C278        C279   1.367       .  A
C278        H281   1.083       .  S
C279        C280   1.377       .  A
C279        H282   1.082       .  S
C280        C814   1.478       .  S
O283       Ni289   1.915       .  S
O283        C304   1.270       .  A
O284       Ni307   1.891       .  S
O284        C293   1.261       .  A
O285       Ni289   1.915       .  S
O285       Ni307   1.905       .  S
O285       Ni301   1.923       .  S
O285        H308   0.966       .  S
C286        O303   1.274       .  A
C286        O295   1.276       .  A
C286        C798   1.465       .  S
O287       Ni306   1.922       .  S
O287        C293   1.271       .  A
O288       Ni306   1.905       .  S
O288        C290   1.266       .  A
Ni289       O292   1.934       .  S
Ni289       O294   1.897       .  S
C290        O300   1.280       .  A
C290        C782   1.509       .  S
O291       Ni307   1.894       .  S
O291        C297   1.265       .  A
O292        C297   1.274       .  A
C293        C750   1.464       .  S
O294        C296   1.264       .  A
O295       Ni306   1.916       .  S
C296        O302   1.279       .  A
C296        C849   1.480       .  S
C297        C769   1.464       .  S
H298        O299   0.967       .  S
O299       Ni307   1.896       .  S
O299       Ni301   1.886       .  S
O299       Ni306   1.896       .  S
O300       Ni301   1.951       .  S
Ni301       O305   1.895       .  S
Ni301       O303   1.908       .  S
O302       Ni307   1.954       .  S
C304        O305   1.267       .  A
C304        C817   1.464       .  S
N309        C313   1.374       .  A
N309        C310   1.368   1_554  A
N309        C737   1.456       .  S
C310       C1489   1.491       .  S
C310        C311   1.378       .  A
C311        C312   1.368   1_556  A
C311        H314   1.082       .  S
C312        C313   1.383       .  A
C312        H315   1.082       .  S
C313       C1233   1.498       .  S
N316        C320   1.368       .  A
N316        C317   1.364       .  A
N316        C718   1.450       .  S
C317       C1441   1.489       .  S
C317        C318   1.380       .  A
C318        C319   1.370       .  A
C318        H321   1.082       .  S
C319        C320   1.384       .  A
C319        H322   1.082       .  S
C320        C785   1.492       .  S
N323        C327   1.359   1_556  A
N323        C324   1.359       .  A
N323        C702   1.453   1_556  S
C324        C801   1.465       .  S
C324        C325   1.381       .  A
C325        C326   1.365   1_556  A
C325        H328   1.083       .  S
C326        C327   1.379       .  A
C326        H329   1.082       .  S
C327        C689   1.474       .  S
O330       Ni338   1.951       .  S
O330        C340   1.289       .  A
O331       Ni338   1.948       .  S
O331        C341   1.287       .  A
O332       Ni338   1.914   1_554  S
O332        C342   1.278       .  A
O333       Ni338   1.919       .  S
O333        C343   1.280       .  A
O334       Ni339   1.947       .  S
O334        C343   1.288       .  A
O335       Ni339   1.944   1_554  S
O335        C342   1.288       .  A
O336       Ni339   1.902       .  S
O336        C341   1.276       .  A
O337       Ni339   1.913       .  S
O337        C340   1.279       .  A
Ni338      Ni339   2.377       .  S
C340        C734   1.505       .  S
C341        C705   1.494       .  S
C342        C670   1.503       .  S
C343        C721   1.510       .  S
N344        C348   1.358       .  A
N344        C345   1.357       .  A
N344        C673   1.447       .  S
C345       C1265   1.471       .  S
C345        C346   1.381       .  A
C346        C347   1.366       .  A
C346        H349   1.082       .  S
C347        C348   1.380       .  A
C347        H350   1.082       .  S
C348        C654   1.470       .  S
N351        C355   1.359       .  A
N351        C352   1.356       .  A
N351        C638   1.444       .  S
C352       C1185   1.475       .  S
C352        C353   1.379       .  A
C353        C354   1.369       .  A
C353        H356   1.082       .  S
C354        C355   1.382       .  A
C354        H357   1.083       .  S
C355       C1249   1.480       .  S
N358        C362   1.358       .  A
N358        C359   1.356   1_545  A
N358        C622   1.449       .  S
C359       C1214   1.468       .  S
C359        C360   1.382       .  A
C360        C361   1.366   1_565  A
C360        H363   1.083       .  S
C361        C362   1.379       .  A
C361        H364   1.082       .  S
C362        C977   1.468       .  S
N365        C369   1.359       .  A
N365        C366   1.363   1_545  A
N365        C606   1.453       .  S
C366       C1281   1.477       .  S
C366        C367   1.381       .  A
C367        C368   1.364   1_565  A
C367        H370   1.082       .  S
C368        C369   1.378       .  A
C368        H371   1.082       .  S
C369        C590   1.469       .  S
O372       Ni380   1.936   1_565  S
O372        C382   1.285       .  A
O373       Ni380   1.937       .  S
O373        C383   1.286       .  A
O374       Ni380   1.901       .  S
O374        C384   1.276       .  A
O375       Ni380   1.897       .  S
O375        C385   1.274       .  A
O376       Ni381   1.958       .  S
O376        C385   1.290       .  A
O377       Ni381   1.960       .  S
O377        C384   1.290       .  A
O378       Ni381   1.929       .  S
O378        C383   1.282       .  A
O379       Ni381   1.917   1_565  S
O379        C382   1.281       .  A
Ni380      Ni381   2.373       .  S
C382        C641   1.505       .  S
C383        C574   1.513       .  S
C384        C609   1.503       .  S
C385        C625   1.508       .  S
N386        C390   1.368       .  A
N386        C387   1.368       .  A
N386        C577   1.447       .  S
C387        C558   1.499       .  S
C387        C388   1.383       .  A
C388        C389   1.372       .  A
C388        H391   1.082       .  S
C389        C390   1.381       .  A
C389        H392   1.082       .  S
C390       C1009   1.495       .  S
N393        C397   1.363       .  A
N393        C394   1.357       .  A
N393        C542   1.451       .  S
C394        C993   1.469       .  S
C394        C395   1.376       .  A
C395        C396   1.366       .  A
C395        H398   1.082       .  S
C396        C397   1.386       .  A
C396        H399   1.081       .  S
C397        C929   1.481       .  S
N400        C404   1.354       .  A
N400        C401   1.354   1_455  A
N400        C526   1.450       .  S
C401        C961   1.451       .  S
C401        C402   1.379       .  A
C402        C403   1.362   1_655  A
C402        H405   1.083       .  S
C403        C404   1.381       .  A
C403        H406   1.082       .  S
C404        C753   1.459       .  S
N407        C411   1.373   1_655  A
N407        C408   1.370       .  A
N407        C510   1.450       .  S
C408       C1025   1.502       .  S
C408        C409   1.382       .  A
C409        C410   1.374   1_655  A
C409        H412   1.082       .  S
C410        C411   1.382       .  A
C410        H413   1.082       .  S
C411        C494   1.506       .  S
O414       Ni422   1.953       .  S
O414        C424   1.290       .  A
O415       Ni422   1.952       .  S
O415        C425   1.288       .  A
O416       Ni422   1.919       .  S
O416        C426   1.281       .  A
O417       Ni422   1.904   1_455  S
O417        C427   1.277       .  A
O418       Ni423   1.943   1_455  S
O418        C427   1.287       .  A
O419       Ni423   1.939       .  S
O419        C426   1.286       .  A
O420       Ni423   1.894       .  S
O420        C425   1.275       .  A
O421       Ni423   1.907       .  S
O421        C424   1.276       .  A
Ni422      Ni423   2.376       .  S
C424        C513   1.510       .  S
C425        C529   1.498       .  S
C426        C545   1.502       .  S
C427        C478   1.497       .  S
N428        C432   1.358       .  A
N428        C429   1.355       .  A
N428        C481   1.451       .  S
C429        C465   1.462       .  S
C429        C430   1.379       .  A
C430        C431   1.366       .  A
C430        H433   1.083       .  S
C431        C432   1.383       .  A
C431        H434   1.081       .  S
C432        C766   1.474       .  S
O435       Ni441   1.960       .  S
O435        C456   1.285       .  A
O436       Ni459   1.901       .  S
O436        C445   1.268       .  A
O437       Ni441   1.893       .  S
O437       Ni459   1.882       .  S
O437       Ni453   1.888       .  S
O437        H460   0.967       .  S
C438        O455   1.269       .  A
C438        O447   1.275       .  A
C438        C686   1.462       .  S
O439       Ni458   1.921       .  S
O439        C445   1.269       .  A
O440       Ni458   1.911       .  S
O440        C442   1.267       .  A
Ni441       O444   1.933       .  S
Ni441       O446   1.930       .  S
C442        O452   1.280       .  A
C442        C561   1.510       .  S
O443       Ni459   1.895       .  S
O443        C449   1.276       .  A
O444        C449   1.282       .  A
C445        C593   1.463       .  S
O446        C448   1.275       .  A
O447       Ni458   1.919       .  S
C448        O454   1.281       .  A
C448        C497   1.528       .  S
C449        C462   1.456       .  S
H450        O451   0.965       .  S
O451       Ni459   1.910       .  S
O451       Ni453   1.897       .  S
O451       Ni458   1.904       .  S
O452       Ni453   1.955       .  S
Ni453       O457   1.878       .  S
Ni453       O455   1.906       .  S
O454       Ni459   1.953       .  S
C456        O457   1.264       .  A
C456        C657   1.492       .  S
C461        C462   1.395       .  A
C461        C466   1.395       .  A
C461        H468   1.085       .  S
C462        C463   1.412       .  A
C463        C464   1.400       .  A
C463        C470   1.507       .  S
C464        C465   1.397       .  A
C464        H469   1.084       .  S
C465        C466   1.418       .  A
C466        C467   1.511       .  S
C467        H471   1.110       .  S
C467        H472   1.107       .  S
C467        H473   1.111       .  S
C470        H474   1.110       .  S
C470        H475   1.110       .  S
C470        H476   1.110       .  S
C477        C478   1.407       .  A
C477        C482   1.410       .  A
C477        H484   1.084       .  S
C478        C479   1.424       .  A
C479        C480   1.403       .  A
C479        C486   1.510       .  S
C480        C481   1.400       .  A
C480        H485   1.084       .  S
C481        C482   1.416       .  A
C482        C483   1.500       .  S
C483        H487   1.111       .  S
C483        H488   1.110       .  S
C483        H489   1.104       .  S
C486        H490   1.109       .  S
C486        H491   1.111       .  S
C486        H492   1.111       .  S
C493        C494   1.405       .  A
C493        C498   1.420       .  A
C493        H500   1.083       .  S
C494        C495   1.417       .  A
C495        C496   1.414       .  A
C495        C502   1.507       .  S
C496        C497   1.413       .  A
C496        H501   1.084       .  S
C497        C498   1.430       .  A
C498        C499   1.507       .  S
C499        H503   1.111       .  S
C499        H504   1.110       .  S
C499        H505   1.110       .  S
C502        H506   1.110       .  S
C502        H507   1.109       .  S
C502        H508   1.111       .  S
C509        C510   1.397   1_455  A
C509        C514   1.410   1_455  A
C509        H516   1.081       .  S
C510        C511   1.418       .  A
C511        C512   1.410       .  A
C511        C518   1.505       .  S
C512        C513   1.407       .  A
C512        H517   1.084       .  S
C513        C514   1.430       .  A
C514        C515   1.509   1_655  S
C515        H519   1.111       .  S
C515        H520   1.110       .  S
C515        H521   1.110   1_455  S
C518        H522   1.110       .  S
C518        H523   1.106       .  S
C518        H524   1.111       .  S
C525        C526   1.396       .  A
C525        C530   1.397       .  A
C525        H532   1.080       .  S
C526        C527   1.417   1_455  A
C527        C528   1.415       .  A
C527        C534   1.502       .  S
C528        C529   1.409       .  A
C528        H533   1.084       .  S
C529        C530   1.425   1_655  A
C530        C531   1.512       .  S
C531        H535   1.111       .  S
C531        H536   1.109       .  S
C531        H537   1.111       .  S
C534        H538   1.110       .  S
C534        H539   1.108       .  S
C534        H540   1.110       .  S
C541        C542   1.403       .  A
C541        C546   1.413       .  A
C541        H548   1.083       .  S
C542        C543   1.413       .  A
C543        C544   1.406       .  A
C543        C550   1.505       .  S
C544        C545   1.409       .  A
C544        H549   1.084       .  S
C545        C546   1.421       .  A
C546        C547   1.506       .  S
C547        H551   1.111       .  S
C547        H552   1.110       .  S
C547        H553   1.111       .  S
C550        H554   1.110       .  S
C550        H555   1.108       .  S
C550        H556   1.110       .  S
C557        C558   1.400       .  A
C557        C562   1.412       .  A
C557        H564   1.083       .  S
C558        C559   1.419       .  A
C559        C560   1.410       .  A
C559        C566   1.507       .  S
C560        C561   1.406       .  A
C560        H565   1.084       .  S
C561        C562   1.429       .  A
C562        C563   1.509       .  S
C563        H567   1.111       .  S
C563        H568   1.110       .  S
C563        H569   1.110       .  S
C566        H570   1.110       .  S
C566        H571   1.108       .  S
C566        H572   1.110       .  S
C573        C574   1.411       .  A
C573        C578   1.408       .  A
C573        H580   1.084       .  S
C574        C575   1.429       .  A
C575        C576   1.413       .  A
C575        C582   1.507       .  S
C576        C577   1.399       .  A
C576        H581   1.084       .  S
C577        C578   1.412       .  A
C578        C579   1.506       .  S
C579        H583   1.111       .  S
C579        H584   1.110       .  S
C579        H585   1.108       .  S
C582        H586   1.110       .  S
C582        H587   1.110       .  S
C582        H588   1.111       .  S
C589        C590   1.398       .  A
C589        C594   1.402       .  A
C589        H596   1.084       .  S
C590        C591   1.416       .  A
C591        C592   1.398       .  A
C591        C598   1.509       .  S
C592        C593   1.396       .  A
C592        H597   1.084       .  S
C593        C594   1.415       .  A
C594        C595   1.508       .  S
C595        H599   1.111       .  S
C595        H600   1.111       .  S
C595        H601   1.110       .  S
C598        H602   1.108       .  S
C598        H603   1.110       .  S
C598        H604   1.111       .  S
C605        C606   1.398   1_565  A
C605        C610   1.400   1_565  A
C605        H612   1.082       .  S
C606        C607   1.418       .  A
C607        C608   1.420       .  A
C607        C614   1.503       .  S
C608        C609   1.410       .  A
C608        H613   1.084       .  S
C609        C610   1.424       .  A
C610        C611   1.511   1_545  S
C611        H615   1.111       .  S
C611        H616   1.109   1_565  S
C611        H617   1.110       .  S
C614        H618   1.109       .  S
C614        H619   1.110       .  S
C614        H620   1.110       .  S
C621        C622   1.397       .  A
C621        C626   1.401       .  A
C621        H628   1.084       .  S
C622        C623   1.414       .  A
C623        C624   1.417       .  A
C623        C630   1.502   1_545  S
C624        C625   1.412       .  A
C624        H629   1.083       .  S
C625        C626   1.429       .  A
C626        C627   1.511       .  S
C627        H631   1.111       .  S
C627        H632   1.110       .  S
C627        H633   1.110       .  S
C630        H634   1.107       .  S
C630        H635   1.107   1_565  S
C630        H636   1.110       .  S
C637        C638   1.403       .  A
C637        C642   1.407       .  A
C637        H644   1.084       .  S
C638        C639   1.407       .  A
C639        C640   1.408       .  A
C639        C646   1.503       .  S
C640        C641   1.415       .  A
C640        H645   1.084       .  S
C641        C642   1.421       .  A
C642        C643   1.508       .  S
C643        H647   1.111       .  S
C643        H648   1.110       .  S
C643        H649   1.111       .  S
C646        H650   1.110       .  S
C646        H651   1.106       .  S
C646        H652   1.110       .  S
C653        C654   1.397       .  A
C653        C658   1.404       .  A
C653        H660   1.084       .  S
C654        C655   1.410       .  A
C655        C656   1.404       .  A
C655        C662   1.507       .  S
C656        C657   1.406       .  A
C656        H661   1.084       .  S
C657        C658   1.425       .  A
C658        C659   1.510       .  S
C659        H663   1.111       .  S
C659        H664   1.110       .  S
C659        H665   1.110       .  S
C662        H666   1.109       .  S
C662        H667   1.110       .  S
C662        H668   1.111       .  S
C669        C670   1.407       .  A
C669        C674   1.408       .  A
C669        H676   1.084       .  S
C670        C671   1.426       .  A
C671        C672   1.410       .  A
C671        C678   1.508       .  S
C672        C673   1.399       .  A
C672        H677   1.084       .  S
C673        C674   1.415       .  A
C674        C675   1.506       .  S
C675        H679   1.110       .  S
C675        H680   1.107       .  S
C675        H681   1.111       .  S
C678        H682   1.109       .  S
C678        H683   1.111       .  S
C678        H684   1.111       .  S
C685        C686   1.396       .  A
C685        C690   1.398       .  A
C685        H692   1.084       .  S
C686        C687   1.415       .  A
C687        C688   1.401       .  A
C687        C694   1.509       .  S
C688        C689   1.402       .  A
C688        H693   1.085       .  S
C689        C690   1.414       .  A
C690        C691   1.503       .  S
C691        H695   1.111       .  S
C691        H696   1.110       .  S
C691        H697   1.106       .  S
C694        H698   1.111       .  S
C694        H699   1.106       .  S
C694        H700   1.110       .  S
C701        C702   1.403       .  A
C701        C706   1.400       .  A
C701        H708   1.083       .  S
C702        C703   1.420   1_554  A
C703        C704   1.413       .  A
C703        C710   1.502       .  S
C704        C705   1.406       .  A
C704        H709   1.084       .  S
C705        C706   1.420   1_556  A
C706        C707   1.511       .  S
C707        H711   1.111       .  S
C707        H712   1.111       .  S
C707        H713   1.109       .  S
C710        H714   1.103       .  S
C710        H715   1.110       .  S
C710        H716   1.111       .  S
C717        C718   1.400       .  A
C717        C722   1.409       .  A
C717        H724   1.084       .  S
C718        C719   1.414       .  A
C719        C720   1.413       .  A
C719        C726   1.504       .  S
C720        C721   1.411       .  A
C720        H725   1.084       .  S
C721        C722   1.427       .  A
C722        C723   1.508       .  S
C723        H727   1.111       .  S
C723        H728   1.110       .  S
C723        H729   1.110       .  S
C726        H730   1.110       .  S
C726        H731   1.107       .  S
C726        H732   1.110       .  S
C733        C734   1.411   1_554  A
C733        C738   1.410       .  A
C733        H740   1.084       .  S
C734        C735   1.416       .  A
C735        C736   1.414       .  A
C735        C742   1.506       .  S
C736        C737   1.410   1_556  A
C736        H741   1.083       .  S
C737        C738   1.415       .  A
C738        C739   1.504       .  S
C739        H743   1.110       .  S
C739        H744   1.110       .  S
C739        H745   1.103       .  S
C742        H746   1.110       .  S
C742        H747   1.111       .  S
C742        H748   1.111       .  S
C749        C750   1.402       .  A
C749        C754   1.392       .  A
C749        H756   1.085       .  S
C750        C751   1.412       .  A
C751        C752   1.400       .  A
C751        C758   1.507       .  S
C752        C753   1.401       .  A
C752        H757   1.085       .  S
C753        C754   1.408       .  A
C754        C755   1.510       .  S
C755        H759   1.111       .  S
C755        H760   1.108       .  S
C755        H761   1.107       .  S
C758        H762   1.111       .  S
C758        H763   1.110       .  S
C758        H764   1.111       .  S
C765        C766   1.404       .  A
C765        C770   1.400       .  A
C765        H772   1.083       .  S
C766        C767   1.414       .  A
C767        C768   1.401       .  A
C767        C774   1.509       .  S
C768        C769   1.401       .  A
C768        H773   1.083       .  S
C769        C770   1.407       .  A
C770        C771   1.506       .  S
C771        H775   1.111       .  S
C771        H776   1.111       .  S
C771        H777   1.110       .  S
C774        H778   1.107       .  S
C774        H779   1.110       .  S
C774        H780   1.111       .  S
C781        C782   1.407       .  A
C781        C786   1.410       .  A
C781        H788   1.084       .  S
C782        C783   1.431       .  A
C783        C784   1.409       .  A
C783        C790   1.509       .  S
C784        C785   1.396       .  A
C784        H789   1.084       .  S
C785        C786   1.419       .  A
C786        C787   1.509       .  S
C787        H791   1.111       .  S
C787        H792   1.109       .  S
C787        H793   1.107       .  S
C790        H794   1.111       .  S
C790        H795   1.110       .  S
C790        H796   1.111       .  S
C797        C798   1.406       .  A
C797        C802   1.400       .  A
C797        H804   1.084       .  S
C798        C799   1.409       .  A
C799        C800   1.398       .  A
C799        C806   1.507       .  S
C800        C801   1.404       .  A
C800        H805   1.084       .  S
C801        C802   1.404       .  A
C802        C803   1.505       .  S
C803        H807   1.111       .  S
C803        H808   1.110       .  S
C803        H809   1.110       .  S
C806        H810   1.110       .  S
C806        H811   1.110       .  S
C806        H812   1.111       .  S
C813        C814   1.402       .  A
C813        C818   1.399       .  A
C813        H820   1.084       .  S
C814        C815   1.417       .  A
C815        C816   1.398       .  A
C815        C822   1.504       .  S
C816        C817   1.398       .  A
C816        H821   1.085       .  S
C817        C818   1.412       .  A
C818        C819   1.505       .  S
C819        H823   1.111       .  S
C819        H824   1.111       .  S
C819        H825   1.109       .  S
C822        H826   1.103       .  S
C822        H827   1.106       .  S
C822        H828   1.111       .  S
C829        C830   1.403       .  A
C829        C834   1.409       .  A
C829        H836   1.085       .  S
C830        C831   1.413       .  A
C831        C832   1.400       .  A
C831        C838   1.510       .  S
C832        C833   1.408       .  A
C832        H837   1.083       .  S
C833        C834   1.421       .  A
C834        C835   1.503       .  S
C835        H839   1.110       .  S
C835        H840   1.110       .  S
C835        H841   1.103       .  S
C838        H842   1.109       .  S
C838        H843   1.111       .  S
C838        H844   1.111       .  S
C845        C846   1.403       .  A
C845        C850   1.411       .  A
C845        H852   1.084       .  S
C846        C847   1.417       .  A
C847        C848   1.400       .  A
C847        C854   1.509       .  S
C848        C849   1.399       .  A
C848        H853   1.084       .  S
C849        C850   1.417       .  A
C850        C851   1.506       .  S
C851        H855   1.111       .  S
C851        H856   1.110       .  S
C851        H857   1.110       .  S
C854        H858   1.110       .  S
C854        H859   1.108       .  S
C854        H860   1.111       .  S
C861        C862   1.401       .  A
C861        C866   1.411       .  A
C861        H868   1.084       .  S
C862        C863   1.408       .  A
C863        C864   1.408       .  A
C863        C870   1.505   1_565  S
C864        C865   1.414       .  A
C864        H869   1.083       .  S
C865        C866   1.424       .  A
C866        C867   1.506       .  S
C867        H871   1.111       .  S
C867        H872   1.110   1_565  S
C867        H873   1.110       .  S
C870        H874   1.107       .  S
C870        H875   1.109   1_545  S
C870        H876   1.111       .  S
C877        C878   1.404       .  A
C877        C882   1.412       .  A
C877        H884   1.084       .  S
C878        C879   1.410       .  A
C879        C880   1.406       .  A
C879        C886   1.503       .  S
C880        C881   1.411       .  A
C880        H885   1.084       .  S
C881        C882   1.421       .  A
C882        C883   1.506       .  S
C883        H887   1.111       .  S
C883        H888   1.110       .  S
C883        H889   1.110       .  S
C886        H890   1.111       .  S
C886        H891   1.103       .  S
C886        H892   1.110       .  S
C893        C894   1.411       .  A
C893        C898   1.404       .  A
C893        H900   1.084       .  S
C894        C895   1.420       .  A
C895        C896   1.409       .  A
C895        C902   1.507       .  S
C896        C897   1.403       .  A
C896        H901   1.080       .  S
C897        C898   1.412       .  A
C898        C899   1.507   1_565  S
C899        H903   1.110   1_545  S
C899        H904   1.106       .  S
C899        H905   1.110       .  S
C902        H906   1.111       .  S
C902        H907   1.110       .  S
C902        H908   1.111       .  S
C909        C910   1.402       .  A
C909        C914   1.403       .  A
C909        H916   1.084       .  S
C910        C911   1.413       .  A
C911        C912   1.397       .  A
C911        C918   1.508       .  S
C912        C913   1.402       .  A
C912        H917   1.085       .  S
C913        C914   1.414       .  A
C914        C915   1.505       .  S
C915        H919   1.111       .  S
C915        H920   1.110       .  S
C915        H921   1.106       .  S
C918        H922   1.111       .  S
C918        H923   1.108       .  S
C918        H924   1.110       .  S
C925        C926   1.400       .  A
C925        C930   1.404       .  A
C925        H932   1.084       .  S
C926        C927   1.416       .  A
C927        C928   1.399       .  A
C927        C934   1.509       .  S
C928        C929   1.400       .  A
C928        H933   1.080       .  S
C929        C930   1.419       .  A
C930        C931   1.510       .  S
C931        H935   1.111       .  S
C931        H936   1.105       .  S
C931        H937   1.110       .  S
C934        H938   1.109       .  S
C934        H939   1.109       .  S
C934        H940   1.111       .  S
C941        C942   1.406       .  A
C941        C946   1.404       .  A
C941        H948   1.084       .  S
C942        C943   1.402       .  A
C943        C944   1.390       .  A
C943        C950   1.507       .  S
C944        C945   1.405       .  A
C944        H949   1.081       .  S
C945        C946   1.406       .  A
C946        C947   1.504       .  S
C947        H951   1.111       .  S
C947        H952   1.110       .  S
C947        H953   1.110       .  S
C950        H954   1.111       .  S
C950        H955   1.110       .  S
C950        H956   1.111       .  S
C957        C958   1.403       .  A
C957        C962   1.394       .  A
C957        H964   1.085       .  S
C958        C959   1.405       .  A
C959        C960   1.391       .  A
C959        C966   1.508       .  S
C960        C961   1.402       .  A
C960        H965   1.085       .  S
C961        C962   1.406       .  A
C962        C963   1.507       .  S
C963        H967   1.111       .  S
C963        H968   1.107       .  S
C963        H969   1.110       .  S
C966        H970   1.109       .  S
C966        H971   1.110       .  S
C966        H972   1.111       .  S
C973        C974   1.401       .  A
C973        C978   1.402       .  A
C973        H980   1.082       .  S
C974        C975   1.411       .  A
C975        C976   1.397       .  A
C975        C982   1.508       .  S
C976        C977   1.399       .  A
C976        H981   1.082       .  S
C977        C978   1.411       .  A
C978        C979   1.507       .  S
C979        H983   1.111       .  S
C979        H984   1.108       .  S
C979        H985   1.110       .  S
C982        H986   1.110       .  S
C982        H987   1.109       .  S
C982        H988   1.111       .  S
C989        C990   1.413       .  A
C989        C994   1.396       .  A
C989        H996   1.083       .  S
C990        C991   1.418       .  A
C991        C992   1.402       .  A
C991        C998   1.506       .  S
C992        C993   1.402       .  A
C992        H997   1.084       .  S
C993        C994   1.403       .  A
C994        C995   1.507       .  S
C995        H999   1.111       .  S
C995       H1000   1.104       .  S
C995       H1001   1.111       .  S
C998       H1002   1.110       .  S
C998       H1003   1.110       .  S
C998       H1004   1.111       .  S
C1005      C1006   1.406       .  A
C1005      C1010   1.413       .  A
C1005      H1012   1.084       .  S
C1006      C1007   1.423       .  A
C1007      C1008   1.414       .  A
C1007      C1014   1.507       .  S
C1008      C1009   1.403       .  A
C1008      H1013   1.084       .  S
C1009      C1010   1.416       .  A
C1010      C1011   1.506       .  S
C1011      H1015   1.111       .  S
C1011      H1016   1.110       .  S
C1011      H1017   1.109       .  S
C1014      H1018   1.109       .  S
C1014      H1019   1.110       .  S
C1014      H1020   1.111       .  S
C1021      C1022   1.407       .  A
C1021      C1026   1.414       .  A
C1021      H1028   1.084       .  S
C1022      C1023   1.429       .  A
C1023      C1024   1.411       .  A
C1023      C1030   1.509       .  S
C1024      C1025   1.399       .  A
C1024      H1029   1.084       .  S
C1025      C1026   1.421       .  A
C1026      C1027   1.507       .  S
C1027      H1031   1.110       .  S
C1027      H1032   1.107       .  S
C1027      H1033   1.110       .  S
C1030      H1034   1.111       .  S
C1030      H1035   1.110       .  S
C1030      H1036   1.111       .  S
C1037      C1038   1.400       .  A
C1037      C1042   1.401       .  A
C1037      H1044   1.083       .  S
C1038      C1039   1.413       .  A
C1039      C1040   1.400       .  A
C1039      C1046   1.508       .  S
C1040      C1041   1.400       .  A
C1040      H1045   1.084       .  S
C1041      C1042   1.414       .  A
C1042      C1043   1.508       .  S
C1043      H1047   1.111       .  S
C1043      H1048   1.110       .  S
C1043      H1049   1.109       .  S
C1046      H1050   1.109       .  S
C1046      H1051   1.108       .  S
C1046      H1052   1.111       .  S
C1053      C1054   1.397       .  A
C1053      C1058   1.406       .  A
C1053      H1060   1.084       .  S
C1054      C1055   1.410       .  A
C1055      C1056   1.406       .  A
C1055      C1062   1.505       .  S
C1056      C1057   1.411       .  A
C1056      H1061   1.084       .  S
C1057      C1058   1.426       .  A
C1058      C1059   1.508       .  S
C1059      H1063   1.111       .  S
C1059      H1064   1.110       .  S
C1059      H1065   1.110       .  S
C1062      H1066   1.111       .  S
C1062      H1067   1.108       .  S
C1062      H1068   1.110       .  S
C1069      C1070   1.407       .  A
C1069      C1074   1.406       .  A
C1069      H1076   1.084       .  S
C1070      C1071   1.409       .  A
C1071      C1072   1.399       .  A
C1071      C1078   1.507       .  S
C1072      C1073   1.404       .  A
C1072      H1077   1.085       .  S
C1073      C1074   1.408       .  A
C1074      C1075   1.506       .  S
C1075      H1079   1.111       .  S
C1075      H1080   1.109       .  S
C1075      H1081   1.110       .  S
C1078      H1082   1.109       .  S
C1078      H1083   1.109       .  S
C1078      H1084   1.111       .  S
C1085      C1086   1.410       .  A
C1085      C1090   1.398       .  A
C1085      H1092   1.084       .  S
C1086      C1087   1.423       .  A
C1087      C1088   1.405       .  A
C1087      C1094   1.509       .  S
C1088      C1089   1.400       .  A
C1088      H1093   1.084       .  S
C1089      C1090   1.411       .  A
C1090      C1091   1.510       .  S
C1091      H1095   1.111       .  S
C1091      H1096   1.110       .  S
C1091      H1097   1.104       .  S
C1094      H1098   1.109       .  S
C1094      H1099   1.110       .  S
C1094      H1100   1.111       .  S
C1101      C1102   1.405   1_554  A
C1101      C1106   1.415       .  A
C1101      H1108   1.083       .  S
C1102      C1103   1.415       .  A
C1103      C1104   1.402       .  A
C1103      C1110   1.508       .  S
C1104      C1105   1.406       .  A
C1104      H1109   1.084       .  S
C1105      C1106   1.421   1_556  A
C1106      C1107   1.506       .  S
C1107      H1111   1.111       .  S
C1107      H1112   1.109       .  S
C1107      H1113   1.111       .  S
C1110      H1114   1.110       .  S
C1110      H1115   1.105       .  S
C1110      H1116   1.111       .  S
C1117      C1118   1.403       .  A
C1117      C1122   1.404       .  A
C1117      H1124   1.084       .  S
C1118      C1119   1.413       .  A
C1119      C1120   1.391       .  A
C1119      C1126   1.508       .  S
C1120      C1121   1.405       .  A
C1120      H1125   1.085       .  S
C1121      C1122   1.419       .  A
C1122      C1123   1.508       .  S
C1123      H1127   1.111       .  S
C1123      H1128   1.110       .  S
C1123      H1129   1.109       .  S
C1126      H1130   1.111       .  S
C1126      H1131   1.098       .  S
C1126      H1132   1.110       .  S
C1133      C1134   1.402       .  A
C1133      C1138   1.411       .  A
C1133      H1140   1.082       .  S
C1134      C1135   1.409       .  A
C1135      C1136   1.406       .  A
C1135      C1142   1.506       .  S
C1136      C1137   1.410       .  A
C1136      H1141   1.083       .  S
C1137      C1138   1.424       .  A
C1138      C1139   1.507       .  S
C1139      H1143   1.111       .  S
C1139      H1144   1.110       .  S
C1139      H1145   1.110       .  S
C1142      H1146   1.111       .  S
C1142      H1147   1.108       .  S
C1142      H1148   1.111       .  S
C1149      C1150   1.402       .  A
C1149      C1154   1.406   1_554  A
C1149      H1156   1.082   1_554  S
C1150      C1151   1.413       .  A
C1151      C1152   1.415       .  A
C1151      C1158   1.503       .  S
C1152      C1153   1.413       .  A
C1152      H1157   1.084       .  S
C1153      C1154   1.423   1_554  A
C1154      C1155   1.509       .  S
C1155      H1159   1.111       .  S
C1155      H1160   1.111       .  S
C1155      H1161   1.109   1_556  S
C1158      H1162   1.110       .  S
C1158      H1163   1.107       .  S
C1158      H1164   1.110       .  S
C1165      C1166   1.405       .  A
C1165      C1170   1.404       .  A
C1165      H1172   1.085       .  S
C1166      C1167   1.405       .  A
C1167      C1168   1.403       .  A
C1167      C1174   1.506       .  S
C1168      C1169   1.411       .  A
C1168      H1173   1.084       .  S
C1169      C1170   1.416       .  A
C1170      C1171   1.508       .  S
C1171      H1175   1.111       .  S
C1171      H1176   1.110       .  S
C1171      H1177   1.109       .  S
C1174      H1178   1.110       .  S
C1174      H1179   1.109       .  S
C1174      H1180   1.111       .  S
C1181      C1182   1.412       .  A
C1181      C1186   1.404       .  A
C1181      H1188   1.083       .  S
C1182      C1183   1.423       .  A
C1183      C1184   1.404       .  A
C1183      C1190   1.509       .  S
C1184      C1185   1.399       .  A
C1184      H1189   1.084       .  S
C1185      C1186   1.406       .  A
C1186      C1187   1.506       .  S
C1187      H1191   1.111       .  S
C1187      H1192   1.110       .  S
C1187      H1193   1.110       .  S
C1190      H1194   1.110       .  S
C1190      H1195   1.110       .  S
C1190      H1196   1.111       .  S
C1197      C1198   1.406       .  A
C1197      C1202   1.399       .  A
C1197      H1204   1.084       .  S
C1198      C1199   1.425       .  A
C1199      C1200   1.402       .  A
C1199      C1206   1.510       .  S
C1200      C1201   1.398       .  A
C1200      H1205   1.082       .  S
C1201      C1202   1.411       .  A
C1202      C1203   1.506       .  S
C1203      H1207   1.111       .  S
C1203      H1208   1.110       .  S
C1203      H1209   1.110       .  S
C1206      H1210   1.111       .  S
C1206      H1211   1.109       .  S
C1206      H1212   1.111       .  S
C1213      C1214   1.396       .  A
C1213      C1218   1.406       .  A
C1213      H1220   1.084       .  S
C1214      C1215   1.412       .  A
C1215      C1216   1.397       .  A
C1215      C1222   1.510       .  S
C1216      C1217   1.404       .  A
C1216      H1221   1.084       .  S
C1217      C1218   1.424       .  A
C1218      C1219   1.508       .  S
C1219      H1223   1.111       .  S
C1219      H1224   1.111       .  S
C1219      H1225   1.110       .  S
C1222      H1226   1.109       .  S
C1222      H1227   1.109       .  S
C1222      H1228   1.111       .  S
C1229      C1230   1.405       .  A
C1229      C1234   1.408       .  A
C1229      H1236   1.084       .  S
C1230      C1231   1.427       .  A
C1231      C1232   1.417       .  A
C1231      C1238   1.507       .  S
C1232      C1233   1.402       .  A
C1232      H1237   1.084       .  S
C1233      C1234   1.422       .  A
C1234      C1235   1.510       .  S
C1235      H1239   1.110       .  S
C1235      H1240   1.108       .  S
C1235      H1241   1.110       .  S
C1238      H1242   1.110       .  S
C1238      H1243   1.110       .  S
C1238      H1244   1.111       .  S
C1245      C1246   1.414       .  A
C1245      C1250   1.406       .  A
C1245      H1252   1.084       .  S
C1246      C1247   1.421       .  A
C1247      C1248   1.408       .  A
C1247      C1254   1.508       .  S
C1248      C1249   1.403       .  A
C1248      H1253   1.084       .  S
C1249      C1250   1.406       .  A
C1250      C1251   1.506       .  S
C1251      H1255   1.111       .  S
C1251      H1256   1.111       .  S
C1251      H1257   1.110       .  S
C1254      H1258   1.110       .  S
C1254      H1259   1.110       .  S
C1254      H1260   1.111       .  S
C1261      C1262   1.404       .  A
C1261      C1266   1.399       .  A
C1261      H1268   1.081       .  S
C1262      C1263   1.426       .  A
C1263      C1264   1.402       .  A
C1263      C1270   1.509       .  S
C1264      C1265   1.395       .  A
C1264      H1269   1.084       .  S
C1265      C1266   1.412       .  A
C1266      C1267   1.509       .  S
C1267      H1271   1.111       .  S
C1267      H1272   1.107       .  S
C1267      H1273   1.110       .  S
C1270      H1274   1.109       .  S
C1270      H1275   1.111       .  S
C1270      H1276   1.111       .  S
C1277      C1278   1.405       .  A
C1277      C1282   1.402       .  A
C1277      H1284   1.084       .  S
C1278      C1279   1.414       .  A
C1279      C1280   1.408       .  A
C1279      C1286   1.506       .  S
C1280      C1281   1.405       .  A
C1280      H1285   1.084       .  S
C1281      C1282   1.411       .  A
C1282      C1283   1.506       .  S
C1283      H1287   1.111       .  S
C1283      H1288   1.110       .  S
C1283      H1289   1.109       .  S
C1286      H1290   1.109       .  S
C1286      H1291   1.111       .  S
C1286      H1292   1.111       .  S
C1293      C1294   1.407       .  A
C1293      C1298   1.411       .  A
C1293      H1300   1.084       .  S
C1294      C1295   1.414       .  A
C1295      C1296   1.414       .  A
C1295      C1302   1.505       .  S
C1296      C1297   1.410       .  A
C1296      H1301   1.084       .  S
C1297      C1298   1.418       .  A
C1298      C1299   1.507       .  S
C1299      H1303   1.111       .  S
C1299      H1304   1.109       .  S
C1299      H1305   1.111       .  S
C1302      H1306   1.110       .  S
C1302      H1307   1.109       .  S
C1302      H1308   1.110       .  S
C1309      C1310   1.406       .  A
C1309      C1314   1.413       .  A
C1309      H1316   1.084       .  S
C1310      C1311   1.422       .  A
C1311      C1312   1.411       .  A
C1311      C1318   1.508       .  S
C1312      C1313   1.403       .  A
C1312      H1317   1.080       .  S
C1313      C1314   1.421       .  A
C1314      C1315   1.505       .  S
C1315      H1319   1.110       .  S
C1315      H1320   1.110       .  S
C1315      H1321   1.106       .  S
C1318      H1322   1.111       .  S
C1318      H1323   1.109       .  S
C1318      H1324   1.111       .  S
C1325      C1326   1.407       .  A
C1325      C1330   1.403       .  A
C1325      H1332   1.084       .  S
C1326      C1327   1.415       .  A
C1327      C1328   1.403       .  A
C1327      C1334   1.505       .  S
C1328      C1329   1.405       .  A
C1328      H1333   1.084       .  S
C1329      C1330   1.411       .  A
C1330      C1331   1.504       .  S
C1331      H1335   1.111       .  S
C1331      H1336   1.110       .  S
C1331      H1337   1.110       .  S
C1334      H1338   1.105       .  S
C1334      H1339   1.110       .  S
C1334      H1340   1.111       .  S
C1341      C1342   1.407       .  A
C1341      C1346   1.399       .  A
C1341      H1348   1.085       .  S
C1342      C1343   1.408       .  A
C1343      C1344   1.406       .  A
C1343      C1350   1.505       .  S
C1344      C1345   1.407       .  A
C1344      H1349   1.084       .  S
C1345      C1346   1.406       .  A
C1346      C1347   1.507       .  S
C1347      H1351   1.111       .  S
C1347      H1352   1.110       .  S
C1347      H1353   1.110       .  S
C1350      H1354   1.109       .  S
C1350      H1355   1.110       .  S
C1350      H1356   1.111       .  S
C1357      C1358   1.404       .  A
C1357      C1362   1.401       .  A
C1357      H1364   1.083       .  S
C1358      C1359   1.421   1_455  A
C1359      C1360   1.417       .  A
C1359      C1366   1.503       .  S
C1360      C1361   1.407   1_655  A
C1360      H1365   1.084       .  S
C1361      C1362   1.419       .  A
C1362      C1363   1.511       .  S
C1363      H1367   1.111       .  S
C1363      H1368   1.109       .  S
C1363      H1369   1.110       .  S
C1366      H1370   1.110       .  S
C1366      H1371   1.107       .  S
C1366      H1372   1.110       .  S
C1373      C1374   1.398   1_455  A
C1373      C1378   1.406       .  A
C1373      H1380   1.084       .  S
C1374      C1375   1.416       .  A
C1375      C1376   1.415       .  A
C1375      C1382   1.504       .  S
C1376      C1377   1.410   1_655  A
C1376      H1381   1.084       .  S
C1377      C1378   1.428       .  A
C1378      C1379   1.510       .  S
C1379      H1383   1.111       .  S
C1379      H1384   1.110       .  S
C1379      H1385   1.110       .  S
C1382      H1386   1.110       .  S
C1382      H1387   1.107       .  S
C1382      H1388   1.110       .  S
C1389      C1390   1.403       .  A
C1389      C1394   1.404       .  A
C1389      H1396   1.085       .  S
C1390      C1391   1.411       .  A
C1391      C1392   1.397       .  A
C1391      C1398   1.508       .  S
C1392      C1393   1.402       .  A
C1392      H1397   1.085       .  S
C1393      C1394   1.413       .  A
C1394      C1395   1.507       .  S
C1395      H1399   1.111       .  S
C1395      H1400   1.111       .  S
C1395      H1401   1.109       .  S
C1398      H1402   1.109       .  S
C1398      H1403   1.107       .  S
C1398      H1404   1.111       .  S
C1405      C1406   1.402       .  A
C1405      C1410   1.413       .  A
C1405      H1412   1.083       .  S
C1406      C1407   1.418       .  A
C1407      C1408   1.408       .  A
C1407      C1414   1.504       .  S
C1408      C1409   1.405       .  A
C1408      H1413   1.084       .  S
C1409      C1410   1.425       .  A
C1410      C1411   1.508       .  S
C1411      H1415   1.111       .  S
C1411      H1416   1.109       .  S
C1411      H1417   1.111       .  S
C1414      H1418   1.106       .  S
C1414      H1419   1.110       .  S
C1414      H1420   1.110       .  S
C1421      C1422   1.400       .  A
C1421      C1426   1.400       .  A
C1421      H1428   1.084       .  S
C1422      C1423   1.421       .  A
C1423      C1424   1.400       .  A
C1423      C1430   1.510       .  S
C1424      C1425   1.397       .  A
C1424      H1429   1.085       .  S
C1425      C1426   1.413       .  A
C1426      C1427   1.507       .  S
C1427      H1431   1.111       .  S
C1427      H1432   1.110       .  S
C1427      H1433   1.108       .  S
C1430      H1434   1.109       .  S
C1430      H1435   1.111       .  S
C1430      H1436   1.111       .  S
C1437      C1438   1.407       .  A
C1437      C1442   1.406       .  A
C1437      H1444   1.084       .  S
C1438      C1439   1.431       .  A
C1439      C1440   1.405       .  A
C1439      C1446   1.511       .  S
C1440      C1441   1.396       .  A
C1440      H1445   1.083       .  S
C1441      C1442   1.417       .  A
C1442      C1443   1.507       .  S
C1443      H1447   1.111       .  S
C1443      H1448   1.108       .  S
C1443      H1449   1.110       .  S
C1446      H1450   1.110       .  S
C1446      H1451   1.110       .  S
C1446      H1452   1.111       .  S
C1453      C1454   1.396       .  A
C1453      C1458   1.404       .  A
C1453      H1460   1.085       .  S
C1454      C1455   1.411       .  A
C1455      C1456   1.393       .  A
C1455      C1462   1.511       .  S
C1456      C1457   1.406       .  A
C1456      H1461   1.084       .  S
C1457      C1458   1.424       .  A
C1458      C1459   1.507       .  S
C1459      H1463   1.111       .  S
C1459      H1464   1.108       .  S
C1459      H1465   1.110       .  S
C1462      H1466   1.110       .  S
C1462      H1467   1.107       .  S
C1462      H1468   1.110       .  S
C1469      C1470   1.404       .  A
C1469      C1474   1.407       .  A
C1469      H1476   1.085       .  S
C1470      C1471   1.417       .  A
C1471      C1472   1.414       .  A
C1471      C1478   1.507       .  S
C1472      C1473   1.406       .  A
C1472      H1477   1.084       .  S
C1473      C1474   1.419       .  A
C1474      C1475   1.507       .  S
C1475      H1479   1.110       .  S
C1475      H1480   1.107       .  S
C1475      H1481   1.110       .  S
C1478      H1482   1.111       .  S
C1478      H1483   1.109       .  S
C1478      H1484   1.111       .  S
C1485      C1486   1.413       .  A
C1485      C1490   1.407       .  A
C1485      H1492   1.083       .  S
C1486      C1487   1.425       .  A
C1487      C1488   1.413       .  A
C1487      C1494   1.508       .  S
C1488      C1489   1.404       .  A
C1488      H1493   1.084       .  S
C1489      C1490   1.410       .  A
C1490      C1491   1.507       .  S
C1491      H1495   1.111       .  S
C1491      H1496   1.107       .  S
C1491      H1497   1.111       .  S
C1494      H1498   1.110       .  S
C1494      H1499   1.110       .  S
C1494      H1500   1.111       .  S
C1501      C1502   1.402       .  A
C1501      C1506   1.402       .  A
C1501      H1508   1.085       .  S
C1502      C1503   1.414       .  A
C1503      C1504   1.409       .  A
C1503      C1510   1.506       .  S
C1504      C1505   1.404       .  A
C1504      H1509   1.083       .  S
C1505      C1506   1.414       .  A
C1506      C1507   1.507       .  S
C1507      H1511   1.110       .  S
C1507      H1512   1.110       .  S
C1507      H1513   1.109       .  S
C1510      H1514   1.111       .  S
C1510      H1515   1.108       .  S
C1510      H1516   1.111       .  S
C1517      C1518   1.410       .  A
C1517      C1522   1.399       .  A
C1517      H1524   1.084       .  S
C1518      C1519   1.421       .  A
C1519      C1520   1.404       .  A
C1519      C1526   1.508       .  S
C1520      C1521   1.400       .  A
C1520      H1525   1.082       .  S
C1521      C1522   1.407       .  A
C1522      C1523   1.509       .  S
C1523      H1527   1.108       .  S
C1523      H1528   1.110       .  S
C1523      H1529   1.111       .  S
C1526      H1530   1.110       .  S
C1526      H1531   1.110       .  S
C1526      H1532   1.111       .  S
C1533      C1534   1.400       .  A
C1533      C1538   1.393       .  A
C1533      H1540   1.085       .  S
C1534      C1535   1.417       .  A
C1535      C1536   1.402       .  A
C1535      C1542   1.507       .  S
C1536      C1537   1.397       .  A
C1536      H1541   1.084       .  S
C1537      C1538   1.411       .  A
C1538      C1539   1.509       .  S
C1539      H1543   1.111       .  S
C1539      H1544   1.108       .  S
C1539      H1545   1.108       .  S
C1542      H1546   1.110       .  S
C1542      H1547   1.110       .  S
C1542      H1548   1.111       .  S
C1549      C1550   1.410       .  A
C1549      C1554   1.392       .  A
C1549      H1556   1.085       .  S
C1550      C1551   1.411       .  A
C1551      C1552   1.404       .  A
C1551      C1558   1.507       .  S
C1552      C1553   1.406       .  A
C1552      H1557   1.084       .  S
C1553      C1554   1.404       .  A
C1554      C1555   1.508       .  S
C1555      H1559   1.110       .  S
C1555      H1560   1.105       .  S
C1555      H1561   1.111       .  S
C1558      H1562   1.110       .  S
C1558      H1563   1.110       .  S
C1558      H1564   1.111       .  S
C1565      C1566   1.407       .  A
C1565      C1570   1.398       .  A
C1565      H1572   1.084       .  S
C1566      C1567   1.418       .  A
C1567      C1568   1.404       .  A
C1567      C1574   1.507       .  S
C1568      C1569   1.401       .  A
C1568      H1573   1.085       .  S
C1569      C1570   1.409       .  A
C1570      C1571   1.507       .  S
C1571      H1575   1.111       .  S
C1571      H1576   1.108       .  S
C1571      H1577   1.110       .  S
C1574      H1578   1.110       .  S
C1574      H1579   1.110       .  S
C1574      H1580   1.111       .  S
C1581      C1582   1.406       .  A
C1581      C1586   1.401       .  A
C1581      H1588   1.084       .  S
C1582      C1583   1.417       .  A
C1583      C1584   1.397       .  A
C1583      C1590   1.509       .  S
C1584      C1585   1.397       .  A
C1584      H1589   1.084       .  S
C1585      C1586   1.407       .  A
C1586      C1587   1.506       .  S
C1587      H1591   1.111       .  S
C1587      H1592   1.110       .  S
C1587      H1593   1.111       .  S
C1590      H1594   1.110       .  S
C1590      H1595   1.110       .  S
C1590      H1596   1.111       .  S
C1597      C1598   1.413       .  A
C1597      C1602   1.403       .  A
C1597      H1604   1.083       .  S
C1598      C1599   1.419       .  A
C1599      C1600   1.402       .  A
C1599      C1606   1.508       .  S
C1600      C1601   1.401       .  A
C1600      H1605   1.084       .  S
C1601      C1602   1.406       .  A
C1602      C1603   1.507       .  S
C1603      H1607   1.111       .  S
C1603      H1608   1.110       .  S
C1603      H1609   1.108       .  S
C1606      H1610   1.110       .  S
C1606      H1611   1.110       .  S
C1606      H1612   1.111       .  S
