geometry optimzed in LAMMPS
_audit_creation_date              2020-11-30 
_audit_creation_method            'lammps2cif' 
_symmetry_space_group_name_H-M    'P1' 
_symmetry_Int_Tables_number       1 
_symmetry_cell_setting            triclinic 
loop_ 
_symmetry_equiv_pos_as_xyz 
  x,y,z 
_cell_length_a                    44.73360647 
_cell_length_b                    44.75899175775807 
_cell_length_c                    44.85394165632315 
_cell_angle_alpha                 90.05936043802991 
_cell_angle_beta                  89.92398106126934 
_cell_angle_gamma                 90.02357157497566 
loop_ 
_atom_site_label 
_atom_site_type_symbol 
_atom_site_fract_x 
_atom_site_fract_y 
_atom_site_fract_z 
_atom_site_charge 
O1          O  0.50649085  0.42361826  0.05496004    -0.75400
O2          O  0.50627522  0.46069009  0.08989209    -0.54300
C3          C  0.50619946  0.43295874  0.08219335     0.78300
O4          O  0.59429606  0.50510351  0.95628727    -0.60000
O5          O  0.55834379  0.50759272  0.92062914    -0.53000
C6          C  0.58593373  0.50629127  0.92885235     0.70300
O7          O  0.59176736  0.50350921  0.05700781    -0.74600
O8          O  0.55385166  0.50583632  0.09105458    -0.55100
C9          C  0.58168362  0.50392481  0.08396716     0.76400
O10         O  0.50578031  0.42476199  0.95369379    -0.59700
O11         O  0.50981753  0.46202374  0.91925497    -0.52800
C12         C  0.50737090  0.43437543  0.92661707     0.72900
Zr13       Zr  0.50778263  0.44488703  0.00459157     2.54700
O14         O  0.54878339  0.40917208  0.00547054    -0.80300
O15         O  0.47043505  0.40528682  0.00271077    -0.93700
Zr16       Zr  0.57199557  0.50578964  0.00616788     2.64700
O17         O  0.60963820  0.46646537  0.00620171    -0.98600
O18         O  0.60835203  0.54618220  0.00796156    -0.80700
O19         O  0.53948426  0.47495879  0.03448583    -0.84100
O20         O  0.54095193  0.47496367  0.97625397    -2.18800
O21         O  0.42724345  0.50392478  0.95284935    -0.67400
O22         O  0.46470189  0.50717984  0.91840953    -0.52000
C23         C  0.43698516  0.50424607  0.92575941     0.71300
O24         O  0.50972300  0.59116995  0.05558246    -0.60400
O25         O  0.50834792  0.55404912  0.09037175    -0.52300
C26         C  0.50846449  0.58178451  0.08274718     0.73100
O27         O  0.51377460  0.59166973  0.95452110    -0.71700
O28         O  0.51336532  0.55454097  0.91957084    -0.50400
C29         C  0.51404670  0.58222933  0.92730383     0.74500
O30         O  0.42450446  0.51181059  0.05379105    -0.67100
O31         O  0.46080501  0.51068721  0.08942347    -0.54300
C32         C  0.43327501  0.51223396  0.08121740     0.72900
Zr33       Zr  0.44668814  0.50941193  0.00368229     2.77500
O34         O  0.41236651  0.55149506  0.00013431    -0.97800
O35         O  0.40675018  0.47252270  0.00620240    -0.78600
Zr36       Zr  0.51135094  0.57041470  0.00496985     2.70100
O37         O  0.47343169  0.60934751  0.00357397    -0.79900
O38         O  0.55232095  0.60625098  0.00661453    -0.99000
Zr39       Zr  0.50789174  0.50750337  0.06239119     2.21500
Zr40       Zr  0.51081824  0.50807721  0.94734660     2.11100
O41         O  0.47904153  0.54053309  0.97527683    -2.47700
O42         O  0.47796096  0.54030636  0.03321104    -0.79700
O43         O  0.47766696  0.47710358  0.97532756    -0.71900
O44         O  0.54132987  0.53833634  0.03461283    -2.32800
O45         O  0.47587147  0.47644385  0.03311284    -2.29000
O46         O  0.54293249  0.53869350  0.97658264    -0.73600
H47         H  0.55307463  0.46236979  0.96356247     0.78400
H48         H  0.55368775  0.55011598  0.04784952     0.79400
H49         H  0.46736628  0.55299410  0.96208430     0.81700
H50         H  0.46291046  0.46454192  0.04565910     0.79300
H51         H  0.60559380  0.55701147  0.98892384     0.42300
H52         H  0.54276848  0.62535830  0.01238509     0.41300
H53         H  0.45585595  0.59974446  0.99420695     0.41000
H54         H  0.41214684  0.55691227  0.97874182     0.38900
H55         H  0.38829101  0.48390050  0.00185456     0.42000
H56         H  0.45485217  0.41147030  0.01714309     0.36800
H57         H  0.56177325  0.41604325  0.02197537     0.42900
H58         H  0.60431152  0.45338453  0.98920137     0.39300
H59         H  0.39237244  0.54277804  0.00388758     0.44300
H60         H  0.48021786  0.38783268  0.01210043     0.43000
H61         H  0.62833476  0.47651210  0.99991795     0.43100
H62         H  0.56428167  0.60046868  0.02424568     0.43500
C63         C  0.21800924  0.50990698  0.25255386     0.80100
N64         N  0.19829092  0.50184331  0.23098377    -0.78200
C65         C  0.20671232  0.50012250  0.20208203     0.82600
N66         N  0.23531102  0.50616508  0.19458962    -0.78100
C67         C  0.25550967  0.51423370  0.21555769     0.82700
N68         N  0.24703256  0.51587876  0.24483652    -0.79800
C69         C  0.79363428  0.50121379  0.25690718     0.80100
N70         N  0.76467230  0.50667172  0.24905391    -0.78200
C71         C  0.75471734  0.49777553  0.22170354     0.82600
N72         N  0.77351756  0.48350431  0.20277064    -0.78100
C73         C  0.80228898  0.47803269  0.21036675     0.82700
N74         N  0.81220018  0.48746169  0.23728421    -0.79800
C75         C  0.26102256  0.48810907  0.79142302     0.80100
N76         N  0.25153202  0.49398804  0.76312031    -0.78200
C77         C  0.22214511  0.49007553  0.75609393     0.82600
N78         N  0.20277321  0.48026595  0.77716812    -0.78100
C79         C  0.21205296  0.47408541  0.80522986     0.82700
N80         N  0.24129255  0.47799862  0.81215926    -0.79800
C81         C  0.75698657  0.47035354  0.79000991     0.80100
N82         N  0.76632550  0.47690789  0.76175640    -0.78200
C83         C  0.79378958  0.46741576  0.75235963     0.82600
N84         N  0.81171664  0.45229287  0.77147442    -0.78100
C85         C  0.80262874  0.44582342  0.79952549     0.82700
N86         N  0.77528578  0.45507683  0.80867328    -0.79800
N87         N  0.00625728  0.40073782  0.05356196    -0.36700
N88         N  0.96041685  0.39230534  0.00843498    -0.57300
N89         N  0.00568548  0.38918057  0.96161394    -0.36700
N90         N  0.05130650  0.39987160  0.00641119    -0.57300
C91         C  0.98151113  0.40882318  0.06895039     0.26900
C92         C  0.02994633  0.41268309  0.06797615     0.26900
C93         C  0.98052793  0.39250499  0.94522737     0.26900
C94         C  0.02896667  0.39745248  0.94412889     0.26900
C95         C  0.94316389  0.39079605  0.03309079     0.35500
C96         C  0.94286073  0.38425808  0.98535586     0.35500
C97         C  0.06942704  0.40136152  0.03036988     0.35500
C98         C  0.06916298  0.39583155  0.98246846     0.35500
C99         C  0.98969255  0.42506307  0.09400254    -0.22000
C100        C  0.02022109  0.42760711  0.09332114    -0.22000
C101        C  0.98800751  0.40199831  0.91675116    -0.22000
C102        C  0.01852473  0.40504528  0.91604032    -0.22000
C103        C  0.91453068  0.38160001  0.02569634    -0.23100
C104        C  0.91435475  0.37739577  0.99539724    -0.23000
C105        C  0.09898687  0.39795121  0.02170132    -0.23100
C106        C  0.09883297  0.39458441  0.99129360    -0.23000
C107        C  0.95171017  0.40179990  0.06123725    -0.18400
C108        C  0.06014277  0.41079228  0.05891226    -0.18400
C109        C  0.05941553  0.39841792  0.95267780    -0.18400
C110        C  0.95093793  0.38725805  0.95511462    -0.18400
H111        H  0.97519932  0.43447494  0.11090712     0.14500
H112        H  0.03365522  0.43950372  0.10950052     0.14500
H113        H  0.97302364  0.40660697  0.89839861     0.14500
H114        H  0.03148162  0.41234782  0.89700356     0.14500
H115        H  0.89547903  0.37928055  0.04041198     0.12800
H116        H  0.89514824  0.37120010  0.98209978     0.12800
H117        H  0.11867141  0.39935162  0.03565170     0.12800
H118        H  0.11840446  0.39282607  0.97719844     0.12800
H119        H  0.00701622  0.38738182  0.03464272     0.26100
H120        H  0.00686387  0.38118995  0.98329251     0.26100
O121        O  0.06109510  0.51673869  0.42434257    -0.75400
O122        O  0.09529902  0.51083388  0.46156801    -0.54300
C123        C  0.08817195  0.51530905  0.43413899     0.78300
O124        O  0.95767245  0.59120630  0.50801720    -0.60000
O125        O  0.92296085  0.55395631  0.50518628    -0.53000
C126        C  0.93048216  0.58166306  0.50612976     0.70300
O127        O  0.05958014  0.59103457  0.51243123    -0.74600
O128        O  0.09431290  0.55377014  0.51079609    -0.55100
C129        C  0.08686553  0.58152244  0.51224046     0.76400
O130        O  0.95987102  0.50802649  0.42151011    -0.59700
O131        O  0.92425805  0.50950788  0.45802259    -0.52800
C132        C  0.93246211  0.50835547  0.43051647     0.72900
Zr133      Zr  0.00991387  0.51172365  0.44356577     2.54700
O134        O  0.00616626  0.55505872  0.41107612    -0.80300
O135        O  0.01338214  0.47752541  0.40142660    -0.93700
Zr136      Zr  0.00854630  0.57048554  0.51026361     2.64700
O137        O  0.01041069  0.61234994  0.47563239    -0.98600
O138        O  0.00598176  0.60404291  0.55294649    -0.80700
O139        O  0.03820108  0.54154024  0.47703094    -0.84100
O140        O  0.98036711  0.54146253  0.47591489    -2.18800
O141        O  0.95748043  0.42444627  0.49659314    -0.67400
O142        O  0.92292751  0.46150048  0.50128219    -0.52000
C143        C  0.93023573  0.43396861  0.49736957     0.71300
O144        O  0.05774017  0.50135078  0.59012472    -0.60400
O145        O  0.09315211  0.50412183  0.55359316    -0.52300
C146        C  0.08513167  0.50220973  0.58106655     0.73100
O147        O  0.95667503  0.50227614  0.58883045    -0.71700
O148        O  0.92253228  0.50577558  0.55137258    -0.50400
C149        C  0.92958845  0.50320283  0.57908827     0.74500
O150        O  0.05826099  0.42378845  0.50721101    -0.67100
O151        O  0.09329967  0.46080957  0.50711997    -0.54300
C152        C  0.08551524  0.43313497  0.50792789     0.72900
Zr153      Zr  0.00813371  0.44499854  0.50185775     2.77500
O154        O  0.00231690  0.40350505  0.53646115    -0.97800
O155        O  0.01253141  0.41204249  0.45890026    -0.78600
Zr156      Zr  0.00739982  0.50368091  0.56854548     2.70100
O157        O  0.00614724  0.46138219  0.60257935    -0.79900
O158        O  0.00698900  0.54029148  0.60876003    -0.99000
Zr159      Zr  0.06593616  0.50754874  0.50706063     2.21500
Zr160      Zr  0.95106454  0.50779616  0.50511750     2.11100
O161        O  0.97884600  0.47391133  0.53521954    -2.47700
O162        O  0.03665947  0.47384350  0.53603107    -0.79700
O163        O  0.98007891  0.47816781  0.47180722    -0.71900
O164        O  0.03696881  0.53745290  0.54038996    -2.32800
O165        O  0.03822575  0.47762679  0.47266505    -2.29000
O166        O  0.97880047  0.53760629  0.53945098    -0.73600
H167        H  0.96776547  0.55424877  0.46395282     0.78400
H168        H  0.04969598  0.54876553  0.55362310     0.79400
H169        H  0.96568534  0.46090334  0.54631465     0.81700
H170        H  0.05148801  0.46614703  0.46007383     0.79300
H171        H  0.01791416  0.59407983  0.56861925     0.42300
H172        H  0.98936717  0.55301559  0.60465080     0.41300
H173        H  0.01307332  0.46958907  0.62187911     0.41000
H174        H  0.01128006  0.38616745  0.52603829     0.38900
H175        H  0.00692441  0.42468868  0.44169987     0.42000
H176        H  0.03109308  0.46496947  0.40562787     0.36800
H177        H  0.01923650  0.57021729  0.42048928     0.42900
H178        H  0.99294049  0.60954327  0.46238294     0.39300
H179        H  0.01634272  0.40799333  0.55292677     0.44300
H180        H  0.01952937  0.49025696  0.38444862     0.43000
H181        H  0.00527206  0.63001460  0.48792358     0.43100
H182        H  0.00136007  0.52873572  0.62672734     0.43500
C183        C  0.49562587  0.79199699  0.25903603     0.80100
N184        N  0.50087784  0.76290327  0.25138242    -0.78200
C185        C  0.49283581  0.75294975  0.22372237     0.82600
N186        N  0.47971905  0.77194211  0.20417279    -0.78100
C187        C  0.47416933  0.80063664  0.21187061     0.82700
N188        N  0.48231697  0.81057709  0.23918765    -0.79800
C189        C  0.47608960  0.22661628  0.26040834     0.80100
N190        N  0.46011619  0.20914428  0.24147321    -0.78200
C191        C  0.44934357  0.22000690  0.21550048     0.82600
N192        N  0.45526333  0.24870379  0.20809286    -0.78100
C193        C  0.47139843  0.26660014  0.22643783     0.82700
N194        N  0.48229557  0.25548151  0.25263796    -0.79800
C195        C  0.47877730  0.26600321  0.78402667     0.80100
N196        N  0.46745968  0.24495494  0.80256670    -0.78200
C197        C  0.46438928  0.21617415  0.79380544     0.82600
N198        N  0.47294724  0.20843208  0.76586503    -0.78100
C199        C  0.48440570  0.22908258  0.74682159     0.82700
N200        N  0.48771046  0.25804447  0.75596904    -0.79800
C201        C  0.52603344  0.75804742  0.79253602     0.80100
N202        N  0.51793026  0.77880895  0.81309314    -0.78200
C203        C  0.51608949  0.80811339  0.80583297     0.82600
N204        N  0.52239550  0.81658124  0.77754407    -0.78100
C205        C  0.53065051  0.79627752  0.75657880     0.82700
N206        N  0.53223012  0.76668714  0.76395418    -0.79800
N207        N  0.41539792  0.01080006  0.05305734    -0.36700
N208        N  0.42818941  0.96485654  0.00869709    -0.57300
N209        N  0.43072399  0.01124331  0.96329402    -0.36700
N210        N  0.41287847  0.05650282  0.00672103    -0.57300
C211        C  0.41084976  0.98589163  0.06949842     0.26900
C212        C  0.40467771  0.03421897  0.06881246     0.26900
C213        C  0.43199596  0.98627067  0.94641539     0.26900
C214        C  0.42269032  0.03390566  0.94513632     0.26900
C215        C  0.43165515  0.94852414  0.03375091     0.35500
C216        C  0.44126080  0.94918089  0.98647934     0.35500
C217        C  0.41253348  0.07437823  0.03104904     0.35500
C218        C  0.41883747  0.07430676  0.98309048     0.35500
C219        C  0.39693743  0.99356707  0.09607284    -0.22000
C220        C  0.39316583  0.02412209  0.09569572    -0.22000
C221        C  0.42472729  0.99309622  0.91716976    -0.22000
C222        C  0.41884939  0.02322438  0.91635695    -0.22000
C223        C  0.44638384  0.92202831  0.02729235    -0.23100
C224        C  0.45265478  0.92254598  0.99735970    -0.23000
C225        C  0.41752632  0.10378793  0.02271220    -0.23100
C226        C  0.42148259  0.10374007  0.99231097    -0.23000
C227        C  0.42137583  0.95694460  0.06234733    -0.18400
C228        C  0.40735557  0.06462312  0.06063938    -0.18400
C229        C  0.42154225  0.06435359  0.95325768    -0.18400
C230        C  0.44184369  0.95802476  0.95627277    -0.18400
H231        H  0.39078535  0.97876599  0.11414017     0.14500
H232        H  0.38342082  0.03745895  0.11334630     0.14500
H233        H  0.42424732  0.97801647  0.89829404     0.14500
H234        H  0.41302022  0.03596055  0.89670653     0.14500
H235        H  0.45228585  0.90429600  0.04258430     0.12800
H236        H  0.46426033  0.90526018  0.98506157     0.12800
H237        H  0.41829714  0.12325029  0.03703521     0.12800
H238        H  0.42604044  0.12311258  0.97861434     0.12800
H239        H  0.42733489  0.01213769  0.03332835     0.26100
H240        H  0.43739195  0.01312211  0.98534480     0.26100
C241        C  0.22224304  0.75938831  0.51790710     0.80100
N242        N  0.25127065  0.76640340  0.52434609    -0.78200
C243        C  0.25973997  0.79573137  0.52566247     0.82600
N244        N  0.23924333  0.81747380  0.52089395    -0.78100
C245        C  0.21046070  0.81063303  0.51479638     0.82700
N246        N  0.20222240  0.78159377  0.51295126    -0.79800
C247        C  0.74940425  0.22798866  0.46936227     0.80100
N248        N  0.76798501  0.20759334  0.45672095    -0.78200
C249        C  0.79660150  0.21483602  0.45008202     0.82600
N250        N  0.80661290  0.24275035  0.45606132    -0.78100
C251        C  0.78825606  0.26348958  0.46841991     0.82700
N252        N  0.75956989  0.25604073  0.47555645    -0.79800
C253        C  0.25746593  0.22341985  0.51085894     0.80100
N254        N  0.25122930  0.25209654  0.51911902    -0.78200
C255        C  0.22225881  0.26159056  0.51963087     0.82600
N256        N  0.19998627  0.24228679  0.51261922    -0.78100
C257        C  0.20598980  0.21373160  0.50473752     0.82700
N258        N  0.23483002  0.20463469  0.50345481    -0.79800
C259        C  0.78853140  0.74810761  0.46674391     0.80100
N260        N  0.80826692  0.76651899  0.45310828    -0.78200
C261        C  0.80053651  0.79442933  0.44460144     0.82600
N262        N  0.77218476  0.80385482  0.45008278    -0.78100
C263        C  0.75190786  0.78594012  0.46396744     0.82700
N264        N  0.76015843  0.75780935  0.47241226    -0.79800
N265        N  0.00964666  0.96171177  0.41857071    -0.36700
N266        N  0.04840556  0.01189776  0.43356570    -0.57300
N267        N  0.00115814  0.05385505  0.41800966    -0.36700
N268        N  0.96151553  0.00373553  0.40591951    -0.57300
C269        C  0.03188219  0.94756578  0.43336733     0.26900
C270        C  0.98570335  0.94320089  0.41855373     0.26900
C271        C  0.02074123  0.07211880  0.43200614     0.26900
C272        C  0.97424370  0.06762406  0.41857314     0.26900
C273        C  0.06843841  0.98947026  0.43569560     0.35500
C274        C  0.06420113  0.03756349  0.43474330     0.35500
C275        C  0.94782311  0.97819451  0.39757148     0.35500
C276        C  0.94314751  0.02630611  0.39803540     0.35500
C277        C  0.02222128  0.91946387  0.44209741    -0.22000
C278        C  0.99314993  0.91667546  0.43269243    -0.22000
C279        C  0.00633643  0.09804880  0.44090604    -0.22000
C280        C  0.97697102  0.09514469  0.43261053    -0.22000
C281        C  0.09712792  0.00090301  0.43825363    -0.23100
C282        C  0.09443807  0.03144183  0.43766623    -0.23000
C283        C  0.92063640  0.98458852  0.38417612    -0.23100
C284        C  0.91770799  0.01511810  0.38442787    -0.23000
C285        C  0.06080227  0.95908141  0.43899265    -0.18400
C286        C  0.95735309  0.94934147  0.40593531    -0.18400
C287        C  0.94733465  0.05642850  0.40631047    -0.18400
C288        C  0.05136875  0.06626767  0.43676785    -0.18400
H289        H  0.03471292  0.90274844  0.45425632     0.14500
H290        H  0.97904638  0.89733220  0.43614058     0.14500
H291        H  0.01587937  0.11693296  0.45260899     0.14500
H292        H  0.95958062  0.11144580  0.43667321     0.14500
H293        H  0.11770638  0.98853384  0.44117781     0.12800
H294        H  0.11253779  0.04731800  0.44007425     0.12800
H295        H  0.90410055  0.96886233  0.37616386     0.12800
H296        H  0.89855862  0.02759378  0.37656093     0.12800
H297        H  0.01099201  0.98246833  0.40836141     0.26100
H298        H  0.00616762  0.03365998  0.40776103     0.26100
O299        O  0.42601398  0.95770776  0.51324933    -0.75400
O300        O  0.46324693  0.92277821  0.51291908    -0.54300
C301        C  0.43551073  0.93054594  0.51376311     0.78300
O302        O  0.49875346  0.05667497  0.42135440    -0.60000
O303        O  0.50449331  0.09236021  0.45730876    -0.53000
C304        C  0.50039957  0.08412018  0.43010675     0.70300
O305        O  0.50144956  0.95537745  0.42400133    -0.74600
O306        O  0.50546700  0.92153756  0.46189760    -0.55100
C307        C  0.50262097  0.92842411  0.43417501     0.76400
O308        O  0.42490029  0.05877387  0.51201457    -0.59700
O309        O  0.46153602  0.09386157  0.50751359    -0.52800
C310        C  0.43394963  0.08608175  0.51001104     0.72900
Zr311      Zr  0.44638979  0.00827461  0.51215266     2.54700
O312        O  0.40318808  0.00820524  0.47926041    -0.80300
O313        O  0.41444334  0.00899771  0.55615123    -0.93700
Zr314      Zr  0.50283765  0.00664852  0.44356175     2.64700
O315        O  0.46067397  0.00198624  0.40957667    -0.98600
O316        O  0.53963340  0.00783386  0.40355788    -0.80700
O317        O  0.47459456  0.97840717  0.47843252    -0.84100
O318        O  0.47361281  0.03629091  0.47645851    -2.18800
O319        O  0.51516337  0.06131102  0.58730378    -0.67400
O320        O  0.51039778  0.09528484  0.54982874    -0.52000
C321        C  0.51331550  0.08834304  0.57749054     0.71300
O322        O  0.59318487  0.95852366  0.49961856    -0.60400
O323        O  0.55653333  0.92332079  0.50291315    -0.52300
C324        C  0.58421050  0.93109007  0.50069865     0.73100
O325        O  0.59120149  0.06039107  0.49873527    -0.71700
O326        O  0.55361397  0.09462938  0.50195171    -0.50400
C327        C  0.58139882  0.08749560  0.50023874     0.74500
O328        O  0.52082269  0.96006756  0.59014645    -0.67100
O329        O  0.51720354  0.92406945  0.55425846    -0.54300
C330        C  0.52106942  0.93256391  0.58144953     0.72900
Zr331      Zr  0.51442230  0.00993080  0.56829414     2.77500
O332        O  0.55303036  0.01304769  0.60643293    -0.97800
O333        O  0.47519993  0.00837087  0.60588571    -0.78600
Zr334      Zr  0.57133635  0.00909356  0.49993288     2.70100
O335        O  0.61231744  0.01072097  0.53545466    -0.79900
O336        O  0.60457848  0.00900231  0.45690499    -0.99000
Zr337      Zr  0.50968988  0.95071435  0.50748409     2.21500
Zr338      Zr  0.50795933  0.06587242  0.50444874     2.11100
O339        O  0.54289980  0.03829780  0.53380310    -2.47700
O340        O  0.54389894  0.98061446  0.53525664    -0.79700
O341        O  0.47971014  0.03833852  0.54008928    -0.71900
O342        O  0.53785533  0.97888584  0.47202576    -2.32800
O343        O  0.48033096  0.97975979  0.54135852    -2.29000
O344        O  0.53714823  0.03698719  0.47047220    -0.73600
H345        H  0.46011218  0.04861176  0.46517971     0.78400
H346        H  0.54910587  0.96588979  0.45898838     0.79400
H347        H  0.55613933  0.05167817  0.54484442     0.81700
H348        H  0.46945632  0.96701657  0.55506390     0.79300
H349        H  0.52788181  0.01219276  0.38538461     0.42300
H350        H  0.59871581  0.02687446  0.44530915     0.41300
H351        H  0.60252232  0.00865374  0.55515253     0.41000
H352        H  0.56460603  0.03127000  0.60156319     0.38900
H353        H  0.46237894  0.02579623  0.60131287     0.42000
H354        H  0.39415684  0.00485669  0.54835691     0.36800
H355        H  0.41164699  0.00514854  0.45909338     0.42900
H356        H  0.44579341  0.01660461  0.41691288     0.39300
H357        H  0.54206837  0.01816793  0.62494257     0.44300
H358        H  0.41374506  0.03020577  0.56241829     0.43000
H359        H  0.46789284  0.01041684  0.39048549     0.43100
H360        H  0.62446054  0.01405144  0.46518540     0.43500
C361        C  0.68595572  0.82119134  0.50440570    -0.11500
C362        C  0.67262948  0.83725015  0.48104079     0.15100
C363        C  0.68289650  0.83239536  0.45159944     0.02000
C364        C  0.70713092  0.81318898  0.44650595    -0.15800
C365        C  0.72164313  0.79841078  0.47001803    -0.10700
C366        C  0.70982925  0.80143460  0.49914657     0.08700
C367        C  0.64935836  0.86004238  0.48814551     0.09700
S368        S  0.66705709  0.85092001  0.41958628    -0.25000
H369        H  0.71579415  0.81096093  0.42402886     0.20000
S370        S  0.72558926  0.78254574  0.53077818    -0.30700
H371        H  0.67801065  0.82447430  0.52700733     0.10300
C372        C  0.61878848  0.85514157  0.48248029     0.03500
C373        C  0.59809683  0.87840615  0.48720194    -0.13000
C374        C  0.60706177  0.90656080  0.49828683    -0.08700
C375        C  0.63766157  0.91047143  0.50582453     0.06900
C376        C  0.65832477  0.88753364  0.50018882    -0.13700
S377        S  0.60614462  0.81917197  0.46932435    -0.30700
H378        H  0.57484830  0.87471427  0.48166306     0.11200
S379        S  0.65185306  0.94352475  0.52383853    -0.27800
H380        H  0.68172449  0.89112510  0.50532575     0.08400
H381        H  0.72478805  0.75428850  0.51706834     0.26800
H382        H  0.57534728  0.82504591  0.47178517     0.21600
H383        H  0.62786863  0.94538706  0.54410846     0.27000
H384        H  0.65849435  0.87732413  0.43420664     0.15800
C385        C  0.87448951  0.83064565  0.42064272    -0.11500
C386        C  0.86505698  0.85980351  0.41487183     0.15100
C387        C  0.83433754  0.86656678  0.41543547     0.02000
C388        C  0.81388872  0.84451347  0.42398946    -0.15800
C389        C  0.82323683  0.81543652  0.43178301    -0.10700
C390        C  0.85414650  0.80822230  0.42868769     0.08700
C391        C  0.88815004  0.88319298  0.41212078     0.09700
S392        S  0.82003462  0.90332708  0.40710270    -0.25000
H393        H  0.79048058  0.85055820  0.42526256     0.20000
S394        S  0.86916384  0.77134758  0.43575837    -0.30700
H395        H  0.89821451  0.82582671  0.42013580     0.10300
C396        C  0.89560038  0.90119197  0.43678748     0.03500
C397        C  0.91840036  0.92236981  0.43399750    -0.13000
C398        C  0.93426872  0.92556963  0.40721756    -0.08700
C399        C  0.92725325  0.90708915  0.38268036     0.06900
C400        C  0.90401813  0.88625335  0.38529804    -0.13700
S401        S  0.87657286  0.89666443  0.47206263    -0.30700
H402        H  0.92416314  0.93646101  0.45277500     0.11200
S403        S  0.94695969  0.90910872  0.34766981    -0.27800
H404        H  0.89848132  0.87208469  0.36649274     0.08400
H405        H  0.89709090  0.77571523  0.42196182     0.26800
H406        H  0.89044318  0.92068655  0.48682643     0.21600
H407        H  0.97441906  0.91856919  0.35957362     0.27000
H408        H  0.84396005  0.91256260  0.38897880     0.15800
C409        C  0.32533503  0.18001178  0.48596237    -0.11500
C410        C  0.34076387  0.17663148  0.51295668     0.15100
C411        C  0.33095896  0.19288740  0.53826055     0.02000
C412        C  0.30470576  0.21000735  0.53657274    -0.15800
C413        C  0.28833202  0.21177278  0.50998388    -0.10700
C414        C  0.29949951  0.19751114  0.48417193     0.08700
C415        C  0.36541368  0.15429713  0.51410610     0.09700
S416        S  0.35019174  0.19176473  0.57355296    -0.25000
H417        H  0.29624365  0.22082462  0.55649572     0.20000
S418        S  0.28114544  0.20011092  0.44848631    -0.30700
H419        H  0.33291660  0.16808064  0.46631871     0.10300
C420        C  0.36231082  0.12723764  0.52995763     0.03500
C421        C  0.38517724  0.10573930  0.52862238    -0.13000
C422        C  0.41078358  0.11004162  0.51087800    -0.08700
C423        C  0.41320040  0.13678137  0.49412696     0.06900
C424        C  0.39093869  0.15873137  0.49643438    -0.13700
S425        S  0.32833149  0.11907495  0.55023739    -0.30700
H426        H  0.38286400  0.08519260  0.54112383     0.11200
S427        S  0.44250415  0.14306792  0.46724695    -0.27800
H428        H  0.39289780  0.17896723  0.48332186     0.08400
H429        H  0.26904145  0.22872048  0.45336333     0.26800
H430        H  0.33760943  0.09158470  0.56222632     0.21600
H431        H  0.44111405  0.11390539  0.45556729     0.27000
H432        H  0.37859525  0.18539032  0.56172351     0.15800
C433        C  0.15988736  0.14406586  0.48855470    -0.11500
C434        C  0.13392712  0.15661189  0.47641427     0.15100
C435        C  0.13102129  0.18798247  0.47526163     0.02000
C436        C  0.15489633  0.20593715  0.48446979    -0.15800
C437        C  0.18122234  0.19341019  0.49625855    -0.10700
C438        C  0.18309621  0.16197364  0.49921843     0.08700
C439        C  0.11040300  0.13593384  0.46589870     0.09700
S440        S  0.09743749  0.20649675  0.46288948    -0.25000
H441        H  0.15274183  0.22996735  0.48249723     0.20000
S442        S  0.21333181  0.14315909  0.51795623    -0.30700
H443        H  0.16179726  0.11998407  0.49030041     0.10300
C444        C  0.10379948  0.13241831  0.43534039     0.03500
C445        C  0.08380240  0.10998968  0.42644718    -0.13000
C446        C  0.07044069  0.09108784  0.44749601    -0.08700
C447        C  0.07633316  0.09526246  0.47812734     0.06900
C448        C  0.09638316  0.11747115  0.48693553    -0.13700
S449        S  0.12220193  0.15499755  0.40748168    -0.30700
H450        H  0.07924520  0.10645032  0.40300226     0.11200
S451        S  0.06006094  0.07226431  0.50694295    -0.27800
H452        H  0.10151795  0.12011702  0.51040238     0.08400
H453        H  0.21549171  0.16439256  0.54102546     0.26800
H454        H  0.10387566  0.14642106  0.38347636     0.21600
H455        H  0.03339174  0.06534284  0.49200937     0.27000
H456        H  0.07756931  0.18371923  0.47143341     0.15800
C457        C  0.67537419  0.19024911  0.45960854    -0.11500
C458        C  0.66789676  0.18350001  0.48924586     0.15100
C459        C  0.68481649  0.19656370  0.51256017     0.02000
C460        C  0.71009758  0.21382631  0.50561191    -0.15800
C461        C  0.71850592  0.21876285  0.47589395    -0.10700
C462        C  0.69995890  0.20821603  0.45277486     0.08700
C463        C  0.64458157  0.16035858  0.49457162     0.09700
S464        S  0.67624178  0.19097530  0.55147812    -0.25000
H465        H  0.72425844  0.22192478  0.52346983     0.20000
S466        S  0.70737373  0.21579680  0.41396996    -0.30700
H467        H  0.66259782  0.18050891  0.44153099     0.10300
C468        C  0.61521729  0.16349428  0.48360358     0.03500
C469        C  0.59507688  0.13956666  0.48607129    -0.13000
C470        C  0.60342930  0.11245458  0.49957756    -0.08700
C471        C  0.63233288  0.11006201  0.51218926     0.06900
C472        C  0.65268772  0.13373868  0.50896166    -0.13700
S473        S  0.60323427  0.19798515  0.46647469    -0.30700
H474        H  0.57285213  0.14180870  0.47681083     0.11200
S475        S  0.64328231  0.07769578  0.53361456    -0.27800
H476        H  0.67523500  0.13144738  0.51739614     0.08400
H477        H  0.72439093  0.24180941  0.41867840     0.26800
H478        H  0.57256982  0.19111160  0.46555117     0.21600
H479        H  0.67105901  0.08870024  0.54336660     0.27000
H480        H  0.64571149  0.18465719  0.54757874     0.15800
C481        C  0.83033041  0.14933885  0.40766992    -0.11500
C482        C  0.85746821  0.14597981  0.42286636     0.15100
C483        C  0.86504731  0.16628835  0.44576415     0.02000
C484        C  0.84501407  0.18892488  0.45348720    -0.15800
C485        C  0.81749510  0.19193920  0.43887855    -0.10700
C486        C  0.81034181  0.17220193  0.41528810     0.08700
C487        C  0.87700998  0.12047919  0.41541219     0.09700
S488        S  0.89924460  0.16381688  0.46695301    -0.25000
H489        H  0.85065919  0.20389832  0.47164232     0.20000
S490        S  0.77663230  0.17540541  0.39358786    -0.30700
H491        H  0.82464171  0.13393803  0.38989664     0.10300
C492        C  0.87754085  0.09477452  0.43345666     0.03500
C493        C  0.89955558  0.07307567  0.42856924    -0.13000
C494        C  0.92103851  0.07667804  0.40601478    -0.08700
C495        C  0.91922868  0.10154581  0.38670768     0.06900
C496        C  0.89711798  0.12313555  0.39156669    -0.13700
S497        S  0.85101503  0.09036403  0.46353322    -0.30700
H498        H  0.90110013  0.05398648  0.44330256     0.11200
S499        S  0.94553879  0.10809765  0.35686737    -0.27800
H500        H  0.89646661  0.14285142  0.37757973     0.08400
H501        H  0.77453496  0.20667494  0.39586001     0.26800
H502        H  0.86073708  0.06197548  0.47280506     0.21600
H503        H  0.95675141  0.07887072  0.35470144     0.27000
H504        H  0.91680861  0.15071647  0.44452949     0.15800
C505        C  0.36376065  0.88595474  0.50421516    -0.11500
C506        C  0.36772674  0.86306838  0.52515698     0.15100
C507        C  0.39464731  0.86179776  0.54157724     0.02000
C508        C  0.41671806  0.88360022  0.53685937    -0.15800
C509        C  0.41262860  0.90669729  0.51604648    -0.10700
C510        C  0.38586883  0.90749367  0.49926555     0.08700
C511        C  0.34300795  0.84130262  0.52904655     0.09700
S512        S  0.40202018  0.83358821  0.56933332    -0.25000
H513        H  0.43701274  0.88288695  0.55001378     0.20000
S514        S  0.37881101  0.93476277  0.47053672    -0.30700
H515        H  0.34321557  0.88693704  0.49145693     0.10300
C516        C  0.32281523  0.84341444  0.55309309     0.03500
C517        C  0.29697200  0.82556213  0.55318052    -0.13000
C518        C  0.29105997  0.80532660  0.52991374    -0.08700
C519        C  0.31234331  0.80198278  0.50689267     0.06900
C520        C  0.33782920  0.82019028  0.50649486    -0.13700
S521        S  0.32854603  0.87067219  0.58225002    -0.30700
H522        H  0.28024290  0.82882259  0.57035720     0.11200
S523        S  0.30632657  0.77747156  0.47565508    -0.27800
H524        H  0.35321499  0.81868706  0.48786810     0.08400
H525        H  0.40870914  0.93694726  0.46105659     0.26800
H526        H  0.30507513  0.86100888  0.60079169     0.21600
H527        H  0.29809140  0.75301819  0.49351401     0.27000
H528        H  0.38211927  0.81188499  0.55850930     0.15800
C529        C  0.13887438  0.85502370  0.50483137    -0.11500
C530        C  0.14917250  0.87877585  0.48727356     0.15100
C531        C  0.17997199  0.88128765  0.48087517     0.02000
C532        C  0.19950707  0.85919003  0.49100912    -0.15800
C533        C  0.18908979  0.83465248  0.50757034    -0.10700
C534        C  0.15845840  0.83307857  0.51523383     0.08700
C535        C  0.12689766  0.89942050  0.47461410     0.09700
S536        S  0.19571530  0.91127664  0.45895416    -0.25000
H537        H  0.22295350  0.86073212  0.48507139     0.20000
S538        S  0.14292927  0.80402846  0.53840209    -0.30700
H539        H  0.11527333  0.85334898  0.51008113     0.10300
C540        C  0.11834843  0.89745213  0.44446033     0.03500
C541        C  0.09679380  0.91721071  0.43333882    -0.13000
C542        C  0.08350022  0.93866345  0.45190846    -0.08700
C543        C  0.09176226  0.94019348  0.48231252     0.06900
C544        C  0.11351889  0.92068588  0.49325175    -0.13700
S545        S  0.13431141  0.86922884  0.42042986    -0.30700
H546        H  0.09004557  0.91590620  0.41020173     0.11200
S547        S  0.07543594  0.96636613  0.50830202    -0.27800
H548        H  0.11993852  0.92190128  0.51651625     0.08400
H549        H  0.16816361  0.80139050  0.55690437     0.26800
H550        H  0.12160882  0.87968517  0.39374380     0.21600
H551        H  0.04753126  0.96891501  0.49420816     0.27000
H552        H  0.17246735  0.93197560  0.46292216     0.15800
C553        C  0.54610913  0.86180467  0.62253719    -0.11500
C554        C  0.53112319  0.86499416  0.64985453     0.15100
C555        C  0.51348822  0.89077234  0.65471870     0.02000
C556        C  0.51104905  0.91246195  0.63230048    -0.15800
C557        C  0.52560948  0.90917682  0.60470019    -0.10700
C558        C  0.54381323  0.88364600  0.60013805     0.08700
C559        C  0.53592886  0.84258234  0.67390395     0.09700
S560        S  0.49396042  0.89767655  0.68929899    -0.25000
H561        H  0.49720552  0.93192690  0.63631513     0.20000
S562        S  0.56622608  0.87859180  0.56711729    -0.30700
H563        H  0.56039147  0.84257581  0.61898181     0.10300
C564        C  0.51887876  0.81607700  0.67582156     0.03500
C565        C  0.51984882  0.79880622  0.70211053    -0.13000
C566        C  0.53773765  0.80756118  0.72631511    -0.08700
C567        C  0.55730736  0.83215157  0.72276298     0.06900
C568        C  0.55593368  0.84953322  0.69687999    -0.13700
S569        S  0.49386192  0.80586025  0.64598473    -0.30700
H570        H  0.50486633  0.77998359  0.70473672     0.11200
S571        S  0.58345136  0.84344281  0.75125656    -0.27800
H572        H  0.56966424  0.86941501  0.69517643     0.08400
H573        H  0.57427186  0.90890103  0.56478003     0.26800
H574        H  0.48557514  0.77789709  0.65767969     0.21600
H575        H  0.58528099  0.81546830  0.76541078     0.27000
H576        H  0.48877663  0.86763544  0.69670473     0.15800
C577        C  0.50105461  0.84952454  0.87869124    -0.11500
C578        C  0.48317172  0.87309232  0.86861357     0.15100
C579        C  0.47738968  0.87611368  0.83790689     0.02000
C580        C  0.48892261  0.85499178  0.81798370    -0.15800
C581        C  0.50603040  0.83061936  0.82801417    -0.10700
C582        C  0.51268006  0.82828780  0.85879642     0.08700
C583        C  0.47198188  0.89486263  0.89065338     0.09700
S584        S  0.45592640  0.90666246  0.82279395    -0.25000
H585        H  0.48389428  0.85729962  0.79447106     0.20000
S586        S  0.53724822  0.79957810  0.87298134    -0.30700
H587        H  0.50608700  0.84805249  0.90225258     0.10300
C588        C  0.44601182  0.88917228  0.90752408     0.03500
C589        C  0.43647979  0.91025598  0.92856945    -0.13000
C590        C  0.45289202  0.93648053  0.93361044    -0.08700
C591        C  0.47910694  0.94194703  0.91681321     0.06900
C592        C  0.48810483  0.92127913  0.89523756    -0.13700
S593        S  0.42491465  0.85521897  0.90205125    -0.30700
H594        H  0.41630482  0.90634527  0.94135038     0.11200
S595        S  0.50219249  0.97457142  0.92213150    -0.27800
H596        H  0.50817080  0.92547519  0.88233209     0.08400
H597        H  0.53506882  0.80722603  0.90332796     0.26800
H598        H  0.40280299  0.86106496  0.92362004     0.21600
H599        H  0.49739390  0.97680005  0.95304053     0.27000
H600        H  0.43657002  0.90995146  0.84727582     0.15800
C601        C  0.47496757  0.19257267  0.67196662    -0.11500
C602        C  0.50409492  0.18235337  0.66642481     0.15100
C603        C  0.52771767  0.19276504  0.68467505     0.02000
C604        C  0.52124195  0.21113265  0.70932871    -0.15800
C605        C  0.49170782  0.21926863  0.71617652    -0.10700
C606        C  0.46860854  0.21091376  0.69645590     0.08700
C607        C  0.50808522  0.15827992  0.64389634     0.09700
S608        S  0.56625541  0.18225414  0.67888894    -0.25000
H609        H  0.53907397  0.21724098  0.72449022     0.20000
S610        S  0.43018215  0.22129294  0.70273589    -0.30700
H611        H  0.45678790  0.18498604  0.65790630     0.10300
C612        C  0.49912491  0.12879667  0.65038661     0.03500
C613        C  0.50160690  0.10658699  0.62848241    -0.13000
C614        C  0.51339293  0.11283274  0.60007766    -0.08700
C615        C  0.52372416  0.14224353  0.59412041     0.06900
C616        C  0.52044787  0.16467632  0.61585379    -0.13700
S617        S  0.48458100  0.11933015  0.68679917    -0.30700
H618        H  0.49370806  0.08426701  0.63341199     0.11200
S619        S  0.54241753  0.15239354  0.55995491    -0.27800
H620        H  0.52793719  0.18718746  0.61104055     0.08400
H621        H  0.43671083  0.24824932  0.71751685     0.26800
H622        H  0.48278380  0.08828602  0.68221102     0.21600
H623        H  0.55879613  0.12562776  0.55790112     0.27000
H624        H  0.56111305  0.15485775  0.66452900     0.15800
C625        C  0.43120647  0.14604156  0.82986463    -0.11500
C626        C  0.43725651  0.15183494  0.85998875     0.15100
C627        C  0.45089599  0.17898227  0.86811734     0.02000
C628        C  0.45917196  0.19928518  0.84606036    -0.15800
C629        C  0.45386503  0.19353946  0.81568253    -0.10700
C630        C  0.43927774  0.16659673  0.80752647     0.08700
C631        C  0.43196400  0.12822418  0.88238918     0.09700
S632        S  0.45914172  0.18862897  0.90629355    -0.25000
H633        H  0.47035688  0.21966162  0.85284282     0.20000
S634        S  0.43021838  0.15818592  0.76913768    -0.30700
H635        H  0.42059615  0.12512469  0.82393064     0.10300
C636        C  0.40387686  0.12420743  0.89606662     0.03500
C637        C  0.40093849  0.10346357  0.91938592    -0.13000
C638        C  0.42560514  0.08673921  0.92912241    -0.08700
C639        C  0.45354172  0.09041777  0.91481926     0.06900
C640        C  0.45636522  0.11099524  0.89161598    -0.13700
S641        S  0.37212272  0.14603847  0.88428997    -0.30700
H642        H  0.37946718  0.10012345  0.93004074     0.11200
S643        S  0.48639112  0.06949550  0.92514920    -0.27800
H644        H  0.47795987  0.11414747  0.88108105     0.08400
H645        H  0.41859343  0.12939910  0.77401378     0.26800
H646        H  0.35263251  0.13666260  0.90707549     0.21600
H647        H  0.47992692  0.06846697  0.95580947     0.27000
H648        H  0.43395633  0.17455402  0.91870619     0.15800
C649        C  0.48668185  0.20341451  0.34126467    -0.11500
C650        C  0.49764087  0.17422347  0.33722364     0.15100
C651        C  0.50572780  0.16482175  0.30827596     0.02000
C652        C  0.50085454  0.18373359  0.28403142    -0.15800
C653        C  0.48817549  0.21221190  0.28763667    -0.10700
C654        C  0.48213802  0.22256906  0.31681059     0.08700
C655        C  0.49729737  0.15276687  0.36255022     0.09700
S656        S  0.52057162  0.12816065  0.30048885    -0.25000
H657        H  0.50569404  0.17550882  0.26179746     0.20000
S658        S  0.46570921  0.25855730  0.32377341    -0.30700
H659        H  0.48038618  0.21082299  0.36340657     0.10300
C660        C  0.51761432  0.15475888  0.38645874     0.03500
C661        C  0.51764661  0.13245820  0.40856555    -0.13000
C662        C  0.49783569  0.10804752  0.40725728    -0.08700
C663        C  0.47668266  0.10688913  0.38383787     0.06900
C664        C  0.47687382  0.12897264  0.36174127    -0.13700
S665        S  0.54439404  0.18488995  0.38809589    -0.30700
H666        H  0.53373589  0.13358285  0.42654594     0.11200
S667        S  0.44815103  0.07855638  0.38130748    -0.27800
H668        H  0.46090705  0.12762002  0.34362841     0.08400
H669        H  0.48768655  0.27394345  0.30741568     0.26800
H670        H  0.55991890  0.17457785  0.41329403     0.21600
H671        H  0.44377697  0.07596774  0.41224967     0.27000
H672        H  0.53526151  0.12469752  0.32795684     0.15800
C673        C  0.41206294  0.15233400  0.18017043    -0.11500
C674        C  0.41996145  0.15652969  0.15019630     0.15100
C675        C  0.43372315  0.18351462  0.14146122     0.02000
C676        C  0.44153556  0.20453389  0.16311363    -0.15800
C677        C  0.43546172  0.19962630  0.19345493    -0.10700
C678        C  0.41914762  0.17382503  0.20179317     0.08700
C679        C  0.41603864  0.13157534  0.12892769     0.09700
S680        S  0.44352704  0.19179787  0.10329957    -0.25000
H681        H  0.45366042  0.22432136  0.15620834     0.20000
S682        S  0.40637860  0.16723203  0.23937350    -0.30700
H683        H  0.40082263  0.13194454  0.18682668     0.10300
C684        C  0.44063727  0.11404258  0.12004407     0.03500
C685        C  0.43669980  0.09191374  0.09832850    -0.13000
C686        C  0.40873945  0.08706518  0.08506074    -0.08700
C687        C  0.38392616  0.10431213  0.09434570     0.06900
C688        C  0.38786048  0.12632420  0.11628387    -0.13700
S689        S  0.47714226  0.12001290  0.13619714    -0.30700
H690        H  0.45558623  0.07855920  0.09118411     0.11200
S691        S  0.34706999  0.10018615  0.07861435    -0.27800
H692        H  0.36901451  0.13994938  0.12306118     0.08400
H693        H  0.40170581  0.19760445  0.24608990     0.26800
H694        H  0.49296243  0.10112573  0.11667953     0.21600
H695        H  0.35071341  0.07124794  0.06711471     0.27000
H696        H  0.42181568  0.17361528  0.08979137     0.15800
C697        C  0.48157777  0.88035550  0.36721553    -0.11500
C698        C  0.50379960  0.85824203  0.36807122     0.15100
C699        C  0.52445850  0.85827853  0.39190180     0.02000
C700        C  0.52292717  0.88081921  0.41367383    -0.15800
C701        C  0.50126663  0.90353370  0.41227140    -0.10700
C702        C  0.47985767  0.90266079  0.38911564     0.08700
C703        C  0.50602459  0.83740425  0.34229766     0.09700
S704        S  0.55415724  0.83123967  0.39512880    -0.25000
H705        H  0.53939622  0.88115322  0.43137875     0.20000
S706        S  0.44940034  0.92890370  0.38664960    -0.30700
H707        H  0.46554021  0.88036260  0.34911791     0.10300
C708        C  0.48920964  0.81074785  0.34077676     0.03500
C709        C  0.48842991  0.79430120  0.31396468    -0.13000
C710        C  0.50381957  0.80430608  0.28855550    -0.08700
C711        C  0.52195824  0.83010257  0.29076913     0.06900
C712        C  0.52284837  0.84629416  0.31748136    -0.13700
S713        S  0.46743314  0.79868644  0.37244149    -0.30700
H714        H  0.47413244  0.77485788  0.31214547     0.11200
S715        S  0.54324168  0.84440454  0.25970294    -0.27800
H716        H  0.53583554  0.86671373  0.31856441     0.08400
H717        H  0.44579384  0.93226633  0.41762673     0.26800
H718        H  0.45838339  0.77114576  0.36028515     0.21600
H719        H  0.54702775  0.81671422  0.24533022     0.27000
H720        H  0.54027319  0.80832428  0.37884343     0.18800
C721        C  0.42857601  0.86274496  0.17686439    -0.11500
C722        C  0.44188513  0.86435251  0.14860343     0.15100
C723        C  0.46412010  0.84347501  0.14054571     0.02000
C724        C  0.47349943  0.82229134  0.16135141    -0.15800
C725        C  0.46103350  0.82131832  0.19002869    -0.10700
C726        C  0.43764962  0.84117682  0.19752247     0.08700
C727        C  0.43417300  0.88941028  0.12877552     0.09700
S728        S  0.48231853  0.84348710  0.10457732    -0.25000
H729        H  0.49133269  0.80701065  0.15539434     0.20000
S730        S  0.41821504  0.83965651  0.23272797    -0.30700
H731        H  0.41127046  0.87857387  0.18292978     0.10300
C732        C  0.40836415  0.88890392  0.11083512     0.03500
C733        C  0.40380245  0.91185444  0.09001843    -0.13000
C734        C  0.42476732  0.93499200  0.08687379    -0.08700
C735        C  0.45037648  0.93555442  0.10512515     0.06900
C736        C  0.45460593  0.91296711  0.12620463    -0.13700
S737        S  0.38254018  0.85797840  0.11303649    -0.30700
H738        H  0.38456698  0.91127708  0.07540377     0.11200
S739        S  0.47863596  0.96397530  0.10020327    -0.27800
H740        H  0.47444354  0.91292396  0.14001827     0.08400
H741        H  0.42024790  0.80843227  0.23579035     0.26800
H742        H  0.36050527  0.87046785  0.09450695     0.21600
H743        H  0.49972326  0.95173222  0.11996151     0.27000
H744        H  0.45875399  0.85635849  0.08839229     0.15800
C745        C  0.85504423  0.39636064  0.47994412    -0.11500
C746        C  0.86086039  0.36673103  0.48818058     0.15100
C747        C  0.88960753  0.35925507  0.49886271     0.02000
C748        C  0.91135028  0.38159595  0.50210125    -0.15800
C749        C  0.90576539  0.41140955  0.49380048    -0.10700
C750        C  0.87711431  0.41854918  0.48214801     0.08700
C751        C  0.83730556  0.34369749  0.48366405     0.09700
S752        S  0.90029339  0.32148013  0.50806464    -0.25000
H753        H  0.93304926  0.37543277  0.51085717     0.20000
S754        S  0.86771457  0.45486124  0.46768310    -0.30700
H755        H  0.83331431  0.40208344  0.47094386     0.10300
C756        C  0.82343853  0.32889077  0.50780750     0.03500
C757        C  0.80504303  0.30397776  0.50231711    -0.13000
C758        C  0.80010621  0.29386497  0.47313761    -0.08700
C759        C  0.81183314  0.31034975  0.44897269     0.06900
C760        C  0.83036797  0.33494076  0.45444830    -0.13700
S761        S  0.83026213  0.34082396  0.54563072    -0.30700
H762        H  0.79610805  0.29123014  0.52080286     0.11200
S763        S  0.80492146  0.30014179  0.41065503    -0.27800
H764        H  0.84046612  0.34657692  0.43580030     0.08400
H765        H  0.89432721  0.45717327  0.45114065     0.26800
H766        H  0.80810699  0.32290113  0.55891976     0.21600
H767        H  0.77709232  0.28642250  0.41587683     0.27000
H768        H  0.88213622  0.30723929  0.48680603     0.15800
C769        C  0.83138365  0.68953295  0.50920406    -0.11500
C770        C  0.83616374  0.66821419  0.48682135     0.15100
C771        C  0.82094760  0.67109926  0.45938326     0.02000
C772        C  0.80301246  0.69630497  0.45428111    -0.15800
C773        C  0.79944696  0.71847799  0.47619099    -0.10700
C774        C  0.81346074  0.71464063  0.50413377     0.08700
C775        C  0.86019262  0.64588252  0.49149242     0.09700
S776        S  0.82526716  0.64457034  0.42937566    -0.25000
H777        H  0.79310549  0.69947142  0.43247111     0.20000
S778        S  0.81243068  0.74275225  0.53286222    -0.30700
H779        H  0.84321405  0.68754057  0.53018282     0.10300
C780        C  0.88911747  0.65057426  0.47989586     0.03500
C781        C  0.91182314  0.62981622  0.48592433    -0.13000
C782        C  0.90628502  0.60423402  0.50325534    -0.08700
C783        C  0.87732508  0.60005409  0.51546444     0.06900
C784        C  0.85466083  0.62079357  0.50932927    -0.13700
S785        S  0.89721866  0.68328927  0.45771325    -0.30700
H786        H  0.93388218  0.63323460  0.47656509     0.11200
S787        S  0.86812106  0.56954099  0.54005457    -0.27800
H788        H  0.83261331  0.61757877  0.51884202     0.08400
H789        H  0.78341782  0.75250153  0.52636661     0.26800
H790        H  0.92632323  0.67492845  0.44923478     0.21600
H791        H  0.89589688  0.56951400  0.55475338     0.27000
H792        H  0.83237732  0.61993888  0.44742663     0.15800
C793        C  0.20147240  0.34155296  0.50564160    -0.11500
C794        C  0.17821406  0.34483244  0.52639870     0.15100
C795        C  0.17442044  0.32309066  0.54881063     0.02000
C796        C  0.19204333  0.29728956  0.54831700    -0.15800
C797        C  0.21372086  0.29276820  0.52609100    -0.10700
C798        C  0.21941953  0.31587236  0.50541679     0.08700
C799        C  0.15533677  0.36812558  0.52117863     0.09700
S800        S  0.14541702  0.32558542  0.57665529    -0.25000
H801        H  0.18724787  0.27954641  0.56405225     0.20000
S802        S  0.24612675  0.31188769  0.47562620    -0.30700
H803        H  0.20440200  0.35819549  0.48834712     0.10300
C804        C  0.15818227  0.39723396  0.53263926     0.03500
C805        C  0.13528353  0.41808701  0.52761251    -0.13000
C806        C  0.10973473  0.41058805  0.51083976    -0.08700
C807        C  0.10770225  0.38154309  0.49838492     0.06900
C808        C  0.13017561  0.36060837  0.50416586    -0.13700
S809        S  0.19056713  0.40745407  0.55435018    -0.30700
H810        H  0.13703585  0.44018098  0.53730096     0.11200
S811        S  0.07796673  0.37004351  0.47380560    -0.27800
H812        H  0.12831191  0.33830706  0.49489064     0.08400
H813        H  0.26866833  0.30015204  0.49398743     0.26800
H814        H  0.18208919  0.43721880  0.55986259     0.21600
H815        H  0.07580390  0.39774181  0.45915268     0.27000
H816        H  0.14545217  0.35691588  0.57860385     0.15800
C817        C  0.17849770  0.69224681  0.49152743    -0.11500
C818        C  0.17726228  0.67497149  0.51755421     0.15100
C819        C  0.19536122  0.68319077  0.54210355     0.02000
C820        C  0.21207053  0.70981258  0.54097866    -0.15800
C821        C  0.21155901  0.72814873  0.51560577    -0.10700
C822        C  0.19552982  0.71845918  0.49020570     0.08700
C823        C  0.15526286  0.64997031  0.51866345     0.09700
S824        S  0.19711102  0.66137567  0.57582459    -0.25000
H825        H  0.22426971  0.71701769  0.56056715     0.20000
S826        S  0.19501123  0.73921663  0.45572794    -0.30700
H827        H  0.16522929  0.68578862  0.47236880     0.10300
C828        C  0.12784146  0.65282231  0.53398775     0.03500
C829        C  0.10627356  0.63003299  0.53178096    -0.13000
C830        C  0.11119118  0.60436551  0.51427616    -0.08700
C831        C  0.13893312  0.60159959  0.49909753     0.06900
C832        C  0.16053418  0.62422862  0.50162150    -0.13700
S833        S  0.11968198  0.68615004  0.55525696    -0.30700
H834        H  0.08528326  0.63234259  0.54359571     0.11200
S835        S  0.14760527  0.57093203  0.47450870    -0.27800
H836        H  0.18132984  0.62222948  0.48935629     0.08400
H837        H  0.22289016  0.75319423  0.45975945     0.26800
H838        H  0.09115909  0.67740625  0.56520788     0.21600
H839        H  0.11903512  0.57000574  0.46154015     0.27000
H840        H  0.18924956  0.63392347  0.56276362     0.15800
C841        C  0.83766534  0.45949870  0.68065518    -0.11500
C842        C  0.83932731  0.48922246  0.67110806     0.15100
C843        C  0.82215990  0.51117861  0.68603640     0.02000
C844        C  0.80533783  0.50317685  0.71131527    -0.15800
C845        C  0.80530326  0.47368263  0.72200110    -0.10700
C846        C  0.82082901  0.45147142  0.70565236     0.08700
C847        C  0.86110328  0.49632257  0.64710753     0.09700
S848        S  0.82214856  0.54991729  0.67502390    -0.25000
H849        H  0.79359555  0.52038663  0.72365341     0.20000
S850        S  0.82080341  0.41249942  0.71595769    -0.30700
H851        H  0.85045299  0.44249380  0.66906420     0.10300
C852        C  0.88951194  0.50814917  0.65379339     0.03500
C853        C  0.91104845  0.51068349  0.63110433    -0.13000
C854        C  0.90514120  0.50112203  0.60173412    -0.08700
C855        C  0.87648411  0.48910851  0.59530536     0.06900
C856        C  0.85481189  0.48733137  0.61784910    -0.13700
S857        S  0.89884561  0.51864862  0.69157607    -0.30700
H858        H  0.93282001  0.51978064  0.63643931     0.11200
S859        S  0.86682140  0.47303248  0.55975058    -0.27800
H860        H  0.83324886  0.47747446  0.61288550     0.08400
H861        H  0.79212299  0.41277067  0.72886230     0.26800
H862        H  0.92826590  0.52811024  0.68575677     0.21600
H863        H  0.89343531  0.45640440  0.55751067     0.27000
H864        H  0.83019999  0.54517504  0.64510088     0.15800
C865        C  0.89838330  0.37516718  0.88958323    -0.11500
C866        C  0.88422494  0.40310913  0.88849121     0.15100
C867        C  0.89064087  0.42477781  0.91044540     0.02000
C868        C  0.91181198  0.41847869  0.93232619    -0.15800
C869        C  0.92645732  0.39082111  0.93315620    -0.10700
C870        C  0.91933837  0.36871644  0.91185561     0.08700
C871        C  0.86419999  0.41003621  0.86337996     0.09700
S872        S  0.87377645  0.46141190  0.91093844    -0.25000
H873        H  0.91745346  0.43553910  0.94854968     0.20000
S874        S  0.93692910  0.33248382  0.91136393    -0.30700
H875        H  0.89345222  0.35854493  0.87270680     0.10300
C876        C  0.87466733  0.42600206  0.83846973     0.03500
C877        C  0.85417564  0.43630764  0.81728359    -0.13000
C878        C  0.82337309  0.43077296  0.82039761    -0.08700
C879        C  0.81340229  0.41255514  0.84423499     0.06900
C880        C  0.83386190  0.40272432  0.86563055    -0.13700
S881        S  0.91402246  0.43407823  0.83424413    -0.30700
H882        H  0.86211148  0.44977285  0.79886888     0.11200
S883        S  0.77522896  0.40041161  0.84831737    -0.27800
H884        H  0.82601710  0.38984746  0.88453939     0.08400
H885        H  0.94381345  0.33143337  0.94190711     0.26800
H886        H  0.91183376  0.44922376  0.80686593     0.21600
H887        H  0.77071463  0.39653120  0.81752203     0.27000
H888        H  0.84630404  0.45310735  0.89830935     0.15800
C889        C  0.17032486  0.51907474  0.69680434    -0.11500
C890        C  0.17479175  0.49798482  0.67411417     0.15100
C891        C  0.19841471  0.47717720  0.67675676     0.02000
C892        C  0.21587263  0.47689047  0.70277789    -0.15800
C893        C  0.21013203  0.49685195  0.72624702    -0.10700
C894        C  0.18767339  0.51874620  0.72272677     0.08700
C895        C  0.15286866  0.49712096  0.64934785     0.09700
S896        S  0.20571427  0.44881530  0.64907594    -0.25000
H897        H  0.23270944  0.45971549  0.70554045     0.20000
S898        S  0.17892041  0.54578615  0.75131856    -0.30700
H899        H  0.15237030  0.53520422  0.69479540     0.10300
C900        C  0.12641368  0.48013466  0.65151509     0.03500
C901        C  0.10477580  0.48215935  0.62893426    -0.13000
C902        C  0.10899953  0.50081403  0.60406545    -0.08700
C903        C  0.13578107  0.51766501  0.60198078     0.06900
C904        C  0.15735681  0.51550073  0.62449595    -0.13700
S905        S  0.12009942  0.45612344  0.68325621    -0.30700
H906        H  0.08448014  0.46907277  0.63059446     0.11200
S907        S  0.14301569  0.54387894  0.57235150    -0.27800
H908        H  0.17748119  0.52891692  0.62308282     0.08400
H909        H  0.20713159  0.54552318  0.76509274     0.26800
H910        H  0.09149818  0.44614183  0.67484842     0.21600
H911        H  0.11384350  0.55562987  0.57234171     0.27000
H912        H  0.19349048  0.46404461  0.62461298     0.15800
C913        C  0.17178866  0.45288097  0.87750142    -0.11500
C914        C  0.14725406  0.43696252  0.86623194     0.15100
C915        C  0.14412827  0.43358386  0.83514189     0.02000
C916        C  0.16573677  0.44570494  0.81615803    -0.15800
C917        C  0.19030601  0.46195176  0.82721521    -0.10700
C918        C  0.19307272  0.46572621  0.85848901     0.08700
C919        C  0.12442741  0.42607727  0.88752900     0.09700
S920        S  0.11306709  0.41433561  0.81814754    -0.25000
H921        H  0.16313281  0.44245430  0.79236102     0.20000
S922        S  0.22203824  0.48775446  0.87575098    -0.30700
H923        H  0.17392564  0.45596923  0.90138065     0.10300
C924        C  0.12130476  0.39557346  0.89479035     0.03500
C925        C  0.09983017  0.38692384  0.91600780    -0.13000
C926        C  0.08173992  0.40827212  0.93018886    -0.08700
C927        C  0.08498903  0.43881769  0.92278838     0.06900
C928        C  0.10604802  0.44725108  0.90141147    -0.13700
S929        S  0.14507307  0.36787314  0.87759982    -0.30700
H930        H  0.09723752  0.36360316  0.92185600     0.11200
S931        S  0.06271797  0.46825097  0.93922230    -0.27800
H932        H  0.10838375  0.47066535  0.89570502     0.08400
H933        H  0.22041302  0.51110991  0.85484250     0.26800
H934        H  0.13256393  0.34289452  0.89197670     0.21600
H935        H  0.05564847  0.45399509  0.96615872     0.27000
H936        H  0.09176948  0.42209261  0.83986099     0.15800
C937        C  0.81761223  0.49579283  0.33739287    -0.11500
C938        C  0.84340869  0.51369208  0.33699426     0.15100
C939        C  0.84959729  0.53114629  0.31146237     0.02000
C940        C  0.83094177  0.52889788  0.28648279    -0.15800
C941        C  0.80605423  0.50977487  0.28624838    -0.10700
C942        C  0.79872589  0.49396148  0.31247639     0.08700
C943        C  0.86473627  0.51159179  0.36224208     0.09700
S944        S  0.88136587  0.55594017  0.30856965    -0.25000
H945        H  0.83690039  0.54089779  0.26634751     0.20000
S946        S  0.76735752  0.46882562  0.31435024    -0.30700
H947        H  0.81271444  0.48238030  0.35690064     0.10300
C948        C  0.86397549  0.53161026  0.38648942     0.03500
C949        C  0.88568877  0.52937467  0.40905844    -0.13000
C950        C  0.90861337  0.50792592  0.40751980    -0.08700
C951        C  0.90880527  0.48745949  0.38345824     0.06900
C952        C  0.88702477  0.48958843  0.36114023    -0.13700
S953        S  0.83588899  0.56047644  0.38824514    -0.30700
H954        H  0.88534868  0.54494540  0.42755214     0.11200
S955        S  0.93566949  0.45761158  0.38037632    -0.27800
H956        H  0.88755442  0.47407647  0.34257134     0.08400
H957        H  0.74750697  0.48836532  0.29995019     0.26800
H958        H  0.84886377  0.57652314  0.41190558     0.21600
H959        H  0.93732871  0.45207256  0.41119856     0.27000
H960        H  0.89948831  0.54309874  0.33057802     0.15800
C961        C  0.87013589  0.44133670  0.17367872    -0.11500
C962        C  0.86124287  0.44115925  0.14379819     0.15100
C963        C  0.83238259  0.45108863  0.13615084     0.02000
C964        C  0.81373985  0.46258537  0.15835827    -0.15800
C965        C  0.82274306  0.46362333  0.18846647    -0.10700
C966        C  0.85120563  0.45185882  0.19612061     0.08700
C967        C  0.88310529  0.43109728  0.12132767     0.09700
S968        S  0.81810516  0.44990658  0.09855508    -0.25000
H969        H  0.79203319  0.47102038  0.15179494     0.20000
S970        S  0.86499182  0.44880118  0.23373707    -0.30700
H971        H  0.89215758  0.43314558  0.17956333     0.10300
C972        C  0.89697208  0.45145466  0.10175503     0.03500
C973        C  0.91871597  0.44103511  0.08184333    -0.13000
C974        C  0.92771721  0.41099606  0.08208498    -0.08700
C975        C  0.91429544  0.39083899  0.10215485     0.06900
C976        C  0.89180662  0.40100258  0.12125741    -0.13700
S977        S  0.88839517  0.49088337  0.10343187    -0.30700
H978        H  0.92947126  0.45639261  0.06657123     0.11200
S979        S  0.92487567  0.35206626  0.10436493    -0.27800
H980        H  0.88147425  0.38552406  0.13672127     0.08400
H981        H  0.83815110  0.43688353  0.24501317     0.26800
H982        H  0.90796251  0.49993018  0.08058343     0.21600
H983        H  0.95523016  0.35646564  0.09754778     0.27000
H984        H  0.83471885  0.42485811  0.08942545     0.15800
C985        C  0.13315137  0.53899459  0.36589866    -0.11500
C986        C  0.15610811  0.51765981  0.36582964     0.15100
C987        C  0.15859355  0.49791088  0.39029442     0.02000
C988        C  0.13693050  0.49845191  0.41297616    -0.15800
C989        C  0.11278478  0.51851763  0.41203693    -0.10700
C990        C  0.11184646  0.53994694  0.38885576     0.08700
C991        C  0.17459470  0.51423756  0.33838333     0.09700
S992        S  0.18803125  0.47054846  0.39302281    -0.25000
H993        H  0.13833183  0.48229361  0.43089938     0.20000
S994        S  0.08427805  0.56928856  0.38742328    -0.30700
H995        H  0.13134789  0.55454523  0.34748386     0.10300
C996        C  0.16906958  0.49064517  0.31833174     0.03500
C997        C  0.18556930  0.48870604  0.29182960    -0.13000
C998        C  0.20685049  0.51049022  0.28390938    -0.08700
C999        C  0.21250724  0.53409331  0.30416500     0.06900
C1000       C  0.19634301  0.53572772  0.33109640    -0.13700
S1001       S  0.13921193  0.46429007  0.32523923    -0.30700
H1002       H  0.18086174  0.47068692  0.27641060     0.11200
S1003       S  0.23764966  0.56423852  0.29556486    -0.27800
H1004       H  0.20023167  0.55425631  0.34616668     0.08400
H1005       H  0.08135662  0.57237658  0.41850680     0.26800
H1006       H  0.14138147  0.44874232  0.29805147     0.21600
H1007       H  0.26231428  0.54521003  0.29143478     0.27000
H1008       H  0.20926141  0.48680945  0.37654617     0.15800
C1009       C  0.13622114  0.48495034  0.15775288    -0.11500
C1010       C  0.14679536  0.46379151  0.13728038     0.15100
C1011       C  0.17731476  0.45598921  0.13703334     0.02000
C1012       C  0.19638908  0.46871369  0.15810780    -0.15800
C1013       C  0.18575937  0.48935941  0.17920549    -0.10700
C1014       C  0.15539817  0.49803778  0.17854202     0.08700
C1015       C  0.12512506  0.44962286  0.11719374     0.09700
S1016       S  0.19316503  0.42932179  0.11123064    -0.25000
H1017       H  0.21964331  0.46192329  0.15842789     0.20000
S1018       S  0.13991185  0.52610735  0.20292592    -0.30700
H1019       H  0.11281220  0.49121080  0.15755897     0.10300
C1020       C  0.11317697  0.42121625  0.12349455     0.03500
C1021       C  0.09202697  0.40883789  0.10409165    -0.13000
C1022       C  0.08285203  0.42443750  0.07861462    -0.08700
C1023       C  0.09462730  0.45313950  0.07263196     0.06900
C1024       C  0.11580776  0.46530883  0.09191058    -0.13700
S1025       S  0.12487372  0.40091558  0.15624358    -0.30700
H1026       H  0.08255813  0.38704637  0.10864848     0.11200
S1027       S  0.08355247  0.47541375  0.04095059    -0.27800
H1028       H  0.12495338  0.48726831  0.08735380     0.08400
H1029       H  0.16570937  0.54409809  0.20325564     0.26800
H1030       H  0.10455992  0.37711649  0.15321911     0.21600
H1031       H  0.05417248  0.46457072  0.03869737     0.27000
H1032       H  0.17167657  0.43227423  0.08863278     0.15800
C1033       C  0.46317802  0.34069362  0.18781071    -0.11500
C1034       C  0.49191306  0.34419397  0.17572638     0.15100
C1035       C  0.51504489  0.32485965  0.18535435     0.02000
C1036       C  0.50845918  0.30175592  0.20551322    -0.15800
C1037       C  0.47911164  0.29669261  0.21536896    -0.10700
C1038       C  0.45642631  0.31693119  0.20693453     0.08700
C1039       C  0.49615126  0.36664246  0.15160910     0.09700
S1040       S  0.55284725  0.32668666  0.17127658    -0.25000
H1041       H  0.52582371  0.28589915  0.21127138     0.20000
S1042       S  0.41786609  0.31207808  0.21773274    -0.30700
H1043       H  0.44542153  0.35560743  0.18086945     0.10300
C1044       C  0.48316559  0.36249970  0.12321692     0.03500
C1045       C  0.48755998  0.38404556  0.10089975    -0.13000
C1046       C  0.50451374  0.40997645  0.10619308    -0.08700
C1047       C  0.51811603  0.41364122  0.13452000     0.06900
C1048       C  0.51337025  0.39228271  0.15694619    -0.13700
S1049       S  0.46083874  0.32975711  0.11529383    -0.30700
H1050       H  0.47707340  0.38101128  0.07936770     0.11200
S1051       S  0.54302593  0.44412583  0.14305952    -0.27800
H1052       H  0.52363085  0.39538112  0.17860146     0.08400
H1053       H  0.42368770  0.29555903  0.24373530     0.26800
H1054       H  0.45584953  0.33579252  0.08493360     0.21600
H1055       H  0.55675540  0.44428652  0.11481062     0.27000
H1056       H  0.54668034  0.34093479  0.14411870     0.15800
C1057       C  0.47736793  0.67810021  0.18919874    -0.11500
C1058       C  0.50535629  0.67126428  0.17675773     0.15100
C1059       C  0.53036146  0.68905519  0.18458131     0.02000
C1060       C  0.52636307  0.71406811  0.20312169    -0.15800
C1061       C  0.49795124  0.72191430  0.21383846    -0.10700
C1062       C  0.47349119  0.70296303  0.20774968     0.08700
C1063       C  0.50661684  0.64769205  0.15336288     0.09700
S1064       S  0.56751882  0.68245700  0.17028486    -0.25000
H1065       H  0.54513459  0.72880336  0.20729145     0.20000
S1066       S  0.43640240  0.71037050  0.22174289    -0.30700
H1067       H  0.45812922  0.66450138  0.18354913     0.10300
C1068       C  0.52123413  0.62010509  0.15754969     0.03500
C1069       C  0.52151702  0.59895037  0.13426275    -0.13000
C1070       C  0.50697881  0.60455115  0.10697615    -0.08700
C1071       C  0.49125396  0.63180135  0.10357081     0.06900
C1072       C  0.49172624  0.65307078  0.12642102    -0.13700
S1073       S  0.53876701  0.61153286  0.19274386    -0.30700
H1074       H  0.53318037  0.57798613  0.13728647     0.11200
S1075       S  0.46852448  0.64024609  0.07152295    -0.27800
H1076       H  0.47980538  0.67393282  0.12339985     0.08400
H1077       H  0.44552929  0.72718047  0.24663306     0.26800
H1078       H  0.55085788  0.58382344  0.18416139     0.21600
H1079       H  0.45686224  0.61115164  0.06885849     0.27000
H1080       H  0.55897843  0.66943698  0.14310541     0.15800
C1081       C  0.54898930  0.69246429  0.83980518    -0.11500
C1082       C  0.52474140  0.67304716  0.83568797     0.15100
C1083       C  0.50352664  0.67962305  0.81327907     0.02000
C1084       C  0.50575159  0.70651249  0.79721441    -0.15800
C1085       C  0.52911343  0.72674631  0.80264623    -0.10700
C1086       C  0.55154038  0.71893414  0.82337089     0.08700
C1087       C  0.52062074  0.64826198  0.85741750     0.09700
S1088       S  0.47241502  0.65531268  0.80529030    -0.25000
H1089       H  0.48830829  0.71239017  0.78154097     0.20000
S1090       S  0.58315336  0.74275157  0.83090848    -0.30700
H1091       H  0.56547973  0.68750674  0.85677759     0.10300
C1092       C  0.53854322  0.62236913  0.85675781     0.03500
C1093       C  0.53565774  0.60090524  0.87951460    -0.13000
C1094       C  0.51521030  0.60482986  0.90306590    -0.08700
C1095       C  0.49656370  0.63036158  0.90298962     0.06900
C1096       C  0.49966911  0.65181518  0.88044437    -0.13700
S1097       S  0.56474620  0.61654427  0.82667132    -0.30700
H1098       H  0.54972925  0.58122460  0.87927071     0.11200
S1099       S  0.46778274  0.63647148  0.93049337    -0.27800
H1100       H  0.48569553  0.67158728  0.88091054     0.08400
H1101       H  0.58420435  0.75568787  0.80235822     0.26800
H1102       H  0.57756465  0.59018712  0.83795375     0.21600
H1103       H  0.45984527  0.60617283  0.93319135     0.27000
H1104       H  0.48670164  0.62871871  0.81391820     0.15800
C1105       C  0.68117424  0.46389155  0.82637079    -0.11500
C1106       C  0.67641153  0.49332788  0.83604125     0.15100
C1107       C  0.69623636  0.51598188  0.82635479     0.02000
C1108       C  0.72147839  0.50836946  0.80929698    -0.15800
C1109       C  0.72697841  0.47864742  0.80099558    -0.10700
C1110       C  0.70591563  0.45641723  0.80873403     0.08700
C1111       C  0.65275191  0.49888408  0.85879973     0.09700
S1112       S  0.69093129  0.55478454  0.83578566    -0.25000
H1113       H  0.73758259  0.52553617  0.80358179     0.20000
S1114       S  0.70998546  0.41781706  0.79784233    -0.30700
H1115       H  0.66603800  0.44637694  0.83350184     0.10300
C1116       C  0.62220596  0.49454597  0.85265095     0.03500
C1117       C  0.60103873  0.49766113  0.87566641    -0.13000
C1118       C  0.60955751  0.50523544  0.90501147    -0.08700
C1119       C  0.64038045  0.51080408  0.91069004     0.06900
C1120       C  0.66140406  0.50717666  0.88764744    -0.13700
S1121       S  0.61013412  0.48563545  0.81526999    -0.30700
H1122       H  0.57769677  0.49373365  0.87073571     0.11200
S1123       S  0.65373352  0.52357282  0.94659613    -0.27800
H1124       H  0.68494167  0.51063376  0.89206238     0.08400
H1125       H  0.72818554  0.42303525  0.77280409     0.26800
H1126       H  0.57953783  0.48251343  0.82181382     0.21600
H1127       H  0.68445781  0.52369897  0.93990245     0.27000
H1128       H  0.65962802  0.55327175  0.83836809     0.15800
C1129       C  0.46325508  0.33557801  0.82925424    -0.11500
C1130       C  0.49192540  0.34795109  0.83149187     0.15100
C1131       C  0.51529766  0.33586096  0.81400146     0.02000
C1132       C  0.51003647  0.31031664  0.79651542    -0.15800
C1133       C  0.48169285  0.29684128  0.79571556    -0.10700
C1134       C  0.45781181  0.31049510  0.81142931     0.08700
C1135       C  0.49729511  0.37102305  0.85472838     0.09700
S1136       S  0.55247252  0.35144193  0.81401662    -0.25000
H1137       H  0.52853767  0.30000673  0.78476881     0.20000
S1138       S  0.42002475  0.29627763  0.81082471    -0.30700
H1139       H  0.44516140  0.34488500  0.84240922     0.10300
C1140       C  0.48527951  0.40003760  0.85258305     0.03500
C1141       C  0.48981868  0.42045644  0.87593395    -0.13000
C1142       C  0.50539759  0.41229395  0.90193707    -0.08700
C1143       C  0.51753667  0.38313790  0.90387018     0.06900
C1144       C  0.51333003  0.36296636  0.88034700    -0.13700
S1145       S  0.46408756  0.41109285  0.82017885    -0.30700
H1146       H  0.48042459  0.44268538  0.87427291     0.11200
S1147       S  0.53888485  0.37022779  0.93540005    -0.27800
H1148       H  0.52241917  0.34059591  0.88212681     0.08400
H1149       H  0.42229425  0.28131001  0.78333698     0.26800
H1150       H  0.45465806  0.43899309  0.83120430     0.21600
H1151       H  0.55415687  0.39737514  0.93971043     0.27000
H1152       H  0.54372981  0.38087817  0.82071798     0.15800
C1153       C  0.32554364  0.52288105  0.83269607    -0.11500
C1154       C  0.34563179  0.49882068  0.83390461     0.15100
C1155       C  0.33971358  0.47303398  0.81661514     0.02000
C1156       C  0.31279065  0.47088627  0.80070604    -0.15800
C1157       C  0.29195752  0.49429279  0.80096965    -0.10700
C1158       C  0.29903188  0.52100285  0.81617265     0.08700
C1159       C  0.37017638  0.49969499  0.85627971     0.09700
S1160       S  0.36493028  0.44159661  0.81510128    -0.25000
H1161       H  0.30744271  0.45027685  0.78917828     0.20000
S1162       S  0.27395242  0.55253171  0.81722456    -0.30700
H1163       H  0.32990508  0.54276797  0.84579279     0.10300
C1164       C  0.39491543  0.51900963  0.85348978     0.03500
C1165       C  0.41686204  0.51957827  0.87598942    -0.13000
C1166       C  0.41446520  0.50134329  0.90144174    -0.08700
C1167       C  0.39010476  0.48123392  0.90356505     0.06900
C1168       C  0.36819560  0.48089070  0.88117969    -0.13700
S1169       S  0.39859563  0.54271786  0.82115869    -0.30700
H1170       H  0.43556910  0.53481968  0.87412250     0.11200
S1171       S  0.38743104  0.45473491  0.93384739    -0.27800
H1172       H  0.34929459  0.46587485  0.88297210     0.08400
H1173       H  0.26077006  0.54720903  0.78930341     0.26800
H1174       H  0.42758991  0.55307953  0.82750195     0.21600
H1175       H  0.36048470  0.44119609  0.92497634     0.27000
H1176       H  0.39101087  0.45737251  0.82272457     0.15800
C1177       C  0.31765925  0.53955515  0.16535437    -0.11500
C1178       C  0.33915380  0.51742233  0.17057951     0.15100
C1179       C  0.33513403  0.49760226  0.19486255     0.02000
C1180       C  0.30873582  0.49914577  0.21188714    -0.15800
C1181       C  0.28634534  0.52006327  0.20526526    -0.10700
C1182       C  0.29153982  0.54118463  0.18243351     0.08700
C1183       C  0.36386579  0.51449359  0.14860319     0.09700
S1184       S  0.36128375  0.46826534  0.20389383    -0.25000
H1185       H  0.30469153  0.48249295  0.22894866     0.20000
S1186       S  0.26468903  0.56964698  0.17280473    -0.30700
H1187       H  0.32072239  0.55498850  0.14698973     0.10300
C1188       C  0.35977276  0.49880304  0.12165238     0.03500
C1189       C  0.38256854  0.49880179  0.10005716    -0.13000
C1190       C  0.40974692  0.51392552  0.10481985    -0.08700
C1191       C  0.41362951  0.52973710  0.13201341     0.06900
C1192       C  0.39076795  0.52975263  0.15348220    -0.13700
S1193       S  0.32532555  0.47893060  0.11465542    -0.30700
H1194       H  0.37926546  0.48672234  0.07939630     0.11200
S1195       S  0.44630512  0.55182581  0.14013092    -0.27800
H1196       H  0.39367807  0.54233597  0.17393076     0.08400
H1197       H  0.25076890  0.57077798  0.20092315     0.26800
H1198       H  0.33504405  0.46389619  0.08884477     0.21600
H1199       H  0.44856415  0.56367746  0.11118630     0.27000
H1200       H  0.38579738  0.47873068  0.18742940     0.15800
C1201       C  0.65050368  0.48539760  0.13041812    -0.11500
C1202       C  0.64650166  0.50415127  0.15514791     0.15100
C1203       C  0.62064128  0.52214300  0.15682967     0.02000
C1204       C  0.59950882  0.52104010  0.13374961    -0.15800
C1205       C  0.60373062  0.50259839  0.10866195    -0.10700
C1206       C  0.62945933  0.48423439  0.10738883     0.08700
C1207       C  0.67119067  0.50604654  0.17712359     0.09700
S1208       S  0.61408509  0.54796271  0.18699446    -0.25000
H1209       H  0.57999999  0.53534547  0.13501540     0.20000
S1210       S  0.63654602  0.45831557  0.07742677    -0.30700
H1211       H  0.67041140  0.47166613  0.12895677     0.10300
C1212       C  0.67486229  0.48449840  0.19975835     0.03500
C1213       C  0.70141583  0.48410296  0.21655439    -0.13000
C1214       C  0.72442103  0.50467116  0.21087640    -0.08700
C1215       C  0.72008990  0.52692609  0.18897072     0.06900
C1216       C  0.69349709  0.52752603  0.17258839    -0.13700
S1217       S  0.64658073  0.45639326  0.20589425    -0.30700
H1218       H  0.70518111  0.46644933  0.23261234     0.11200
S1219       S  0.74884029  0.55330190  0.17871514    -0.27800
H1220       H  0.69087249  0.54385142  0.15495477     0.08400
H1221       H  0.60649931  0.44952498  0.07434365     0.26800
H1222       H  0.65925554  0.44432626  0.23192636     0.21600
H1223       H  0.76431522  0.55273420  0.20594827     0.27000
H1224       H  0.62918929  0.53139459  0.20888363     0.15800
loop_ 
_geom_bond_atom_site_label_1 
_geom_bond_atom_site_label_2 
_geom_bond_distance 
_geom_bond_site_symmetry_2 
_ccdc_geom_bond_type 
O1          Zr13   2.453       .  S
O1            C3   1.291       .  A
O2          Zr39   2.434       .  S
O2            C3   1.288       .  A
C3         C1046   1.492       .  S
O4          Zr16   2.449   1_556  S
O4            C6   1.288       .  A
O5          Zr40   2.439       .  S
O5            C6   1.290       .  A
C6         C1118   1.503       .  S
O7          Zr16   2.449       .  S
O7            C9   1.290       .  A
O8          Zr39   2.428       .  S
O8            C9   1.287       .  A
C9         C1205   1.485       .  S
O10         Zr13   2.455   1_556  S
O10          C12   1.291       .  A
O11         Zr40   2.415       .  S
O11          C12   1.286       .  A
C12        C1142   1.486       .  S
Zr13         O14   2.434       .  S
Zr13         O15   2.437       .  S
Zr13         O19   2.371       .  S
Zr13         O20   2.372   1_554  S
Zr13         O43   2.372   1_554  S
Zr13         O45   2.380       .  S
O14          H57   0.990       .  S
O15          H56   0.990       .  S
O15          H60   0.990       .  S
Zr16         O17   2.436       .  S
Zr16         O18   2.433       .  S
Zr16         O20   2.373   1_554  S
Zr16         O19   2.373       .  S
Zr16         O44   2.372       .  S
Zr16         O46   2.373   1_554  S
O17          H58   0.990   1_554  S
O17          H61   0.990   1_554  S
O18          H51   0.990   1_554  S
O19         Zr39   2.383       .  S
O20         Zr40   2.389       .  S
O20          H47   0.967       .  S
O21         Zr33   2.453   1_556  S
O21          C23   1.290       .  A
O22         Zr40   2.439       .  S
O22          C23   1.289       .  A
C23        C1166   1.491       .  S
O24         Zr36   2.453       .  S
O24          C26   1.290       .  A
O25         Zr39   2.431       .  S
O25          C26   1.288       .  A
C26        C1070   1.490       .  S
O27         Zr36   2.458   1_556  S
O27          C29   1.291       .  A
O28         Zr40   2.428       .  S
O28          C29   1.287       .  A
C29        C1094   1.487       .  S
O30         Zr33   2.458       .  S
O30          C32   1.292       .  A
O31         Zr39   2.433       .  S
O31          C32   1.288       .  A
C32        C1190   1.494       .  S
Zr33         O34   2.436       .  S
Zr33         O35   2.435       .  S
Zr33         O41   2.378   1_554  S
Zr33         O42   2.371       .  S
Zr33         O45   2.374       .  S
Zr33         O43   2.371   1_554  S
O34          H54   0.990   1_554  S
O34          H59   0.990       .  S
O35          H55   0.990       .  S
Zr36         O37   2.433       .  S
Zr36         O38   2.436       .  S
Zr36         O42   2.377       .  S
Zr36         O41   2.377   1_554  S
Zr36         O46   2.372   1_554  S
Zr36         O44   2.374       .  S
O37          H53   0.990   1_554  S
O38          H52   0.990       .  S
O38          H62   0.990       .  S
Zr39         O42   2.382       .  S
Zr39         O44   2.386       .  S
Zr39         O45   2.389       .  S
Zr40         O41   2.386       .  S
Zr40         O43   2.386       .  S
Zr40         O46   2.379       .  S
O41          H49   0.967       .  S
O44          H48   0.968       .  S
O45          H50   0.968       .  S
C63         C998   1.492       .  S
C63          N64   1.359       .  A
C63          N68   1.370       .  A
N64          C65   1.352       .  A
C65        C1013   1.471       .  S
C65          N66   1.350       .  A
N66          C67   1.354       .  A
C67        C1181   1.477       .  S
C67          N68   1.368       .  A
C69         C941   1.479       .  S
C69          N70   1.365       .  A
C69          N74   1.357       .  A
N70          C71   1.365       .  A
C71        C1214   1.473       .  S
C71          N72   1.354       .  A
N72          C73   1.354       .  A
C73         C965   1.488       .  S
C73          N74   1.354       .  A
C75        C1157   1.475       .  S
C75          N76   1.365       .  A
C75          N80   1.359       .  A
N76          C77   1.363       .  A
C77         C893   1.475       .  S
C77          N78   1.355       .  A
N78          C79   1.355       .  A
C79         C917   1.487       .  S
C79          N80   1.356       .  A
C81        C1109   1.477       .  S
C81          N82   1.366       .  A
C81          N86   1.357       .  A
N82          C83   1.366       .  A
C83         C845   1.482       .  S
C83          N84   1.356       .  A
N84          C85   1.353       .  A
C85         C878   1.482       .  S
C85          N86   1.355       .  A
N87          C92   1.352       .  A
N87          C91   1.353   1_455  A
N87         H119   1.038       .  S
N88          C95   1.349       .  A
N88          C96   1.349   1_554  A
N89          C94   1.355       .  A
N89          C93   1.353   1_455  A
N89         H120   1.038       .  S
N90          C97   1.349       .  A
N90          C98   1.350   1_554  A
C91          C99   1.387       .  A
C91         C107   1.413       .  A
C92         C108   1.413       .  A
C92         C100   1.388       .  A
C93         C101   1.387       .  A
C93         C110   1.415       .  A
C94         C109   1.416       .  A
C94         C102   1.387       .  A
C95         C107   1.408       .  A
C95         C103   1.386       .  A
C96         C110   1.410       .  A
C96         C104   1.386       .  A
C97         C105   1.386       .  A
C97         C108   1.410       .  A
C98         C106   1.387       .  A
C98         C109   1.411       .  A
C99         C100   1.371   1_655  A
C99         H111   1.082       .  S
C100        H112   1.082       .  S
C101        C102   1.372   1_655  A
C101        H113   1.082       .  S
C102        H114   1.082       .  S
C103        C104   1.372   1_554  A
C103        H115   1.082       .  S
C104        H116   1.082       .  S
C105        C106   1.372   1_554  A
C105        H117   1.083       .  S
C106        H118   1.082       .  S
C107        C974   1.481       .  S
C108       C1022   1.479       .  S
C109        C926   1.486       .  S
C110        C869   1.483       .  S
O121       Zr133   2.456       .  S
O121        C123   1.291       .  A
O122       Zr159   2.430       .  S
O122        C123   1.287       .  A
C123        C989   1.488       .  S
O124       Zr136   2.460   1_655  S
O124        C126   1.292       .  A
O125       Zr160   2.419       .  S
O125        C126   1.285       .  A
C126        C782   1.487       .  S
O127       Zr136   2.463       .  S
O127        C129   1.293       .  A
O128       Zr159   2.433       .  S
O128        C129   1.288       .  A
C129        C830   1.496       .  S
O130       Zr133   2.454   1_655  S
O130        C132   1.291       .  A
O131       Zr160   2.432       .  S
O131        C132   1.288       .  A
C132        C950   1.485       .  S
Zr133       O134   2.433       .  S
Zr133       O135   2.436       .  S
Zr133       O139   2.374       .  S
Zr133       O140   2.370   1_455  S
Zr133       O163   2.375   1_455  S
Zr133       O165   2.376       .  S
O134        H177   0.990       .  S
O135        H176   0.990       .  S
O135        H180   0.990       .  S
Zr136       O137   2.437       .  S
Zr136       O138   2.435       .  S
Zr136       O140   2.377   1_455  S
Zr136       O139   2.377       .  S
Zr136       O164   2.375       .  S
Zr136       O166   2.377   1_455  S
O137        H178   0.990   1_455  S
O137        H181   0.990       .  S
O138        H171   0.990       .  S
O139       Zr159   2.383       .  S
O140       Zr160   2.388       .  S
O140        H167   0.967       .  S
O141       Zr153   2.457   1_655  S
O141        C143   1.292       .  A
O142       Zr160   2.430       .  S
O142        C143   1.287       .  A
C143        C749   1.498       .  S
O144       Zr156   2.455       .  S
O144        C146   1.291       .  A
O145       Zr159   2.423       .  S
O145        C146   1.286       .  A
C146        C902   1.487       .  S
O147       Zr156   2.444   1_655  S
O147        C149   1.289       .  A
O148       Zr160   2.436       .  S
O148        C149   1.288       .  A
C149        C854   1.495       .  S
O150       Zr153   2.448       .  S
O150        C152   1.289       .  A
O151       Zr159   2.424       .  S
O151        C152   1.287       .  A
C152        C806   1.487       .  S
Zr153       O154   2.435       .  S
Zr153       O155   2.433       .  S
Zr153       O161   2.371   1_455  S
Zr153       O162   2.376       .  S
Zr153       O165   2.378       .  S
Zr153       O163   2.368   1_455  S
O154        H174   0.990       .  S
O154        H179   0.990       .  S
O155        H175   0.990       .  S
Zr156       O157   2.434       .  S
Zr156       O158   2.436       .  S
Zr156       O162   2.370       .  S
Zr156       O161   2.375   1_455  S
Zr156       O166   2.378   1_455  S
Zr156       O164   2.372       .  S
O157        H173   0.990       .  S
O158        H172   0.990   1_455  S
O158        H182   0.990       .  S
Zr159       O162   2.383       .  S
Zr159       O164   2.387       .  S
Zr159       O165   2.390       .  S
Zr160       O161   2.383       .  S
Zr160       O163   2.381       .  S
Zr160       O166   2.386       .  S
O161        H169   0.966       .  S
O164        H168   0.966       .  S
O165        H170   0.966       .  S
C183        C710   1.480       .  S
C183        N184   1.367       .  A
C183        N188   1.357       .  A
N184        C185   1.366       .  A
C185       C1061   1.476       .  S
C185        N186   1.356       .  A
N186        C187   1.353       .  A
C187        C725   1.472       .  S
C187        N188   1.354       .  A
C189        C653   1.484       .  S
C189        N190   1.358       .  A
C189        N194   1.367       .  A
N190        C191   1.352       .  A
C191        C677   1.481       .  S
C191        N192   1.353       .  A
N192        C193   1.356       .  A
C193       C1037   1.477       .  S
C193        N194   1.367       .  A
C195       C1133   1.482       .  S
C195        N196   1.355       .  A
C195        N200   1.367       .  A
N196        C197   1.353       .  A
C197        C629   1.487       .  S
C197        N198   1.355       .  A
N198        C199   1.359       .  A
C199        C605   1.479       .  S
C199        N200   1.367       .  A
C201       C1085   1.480       .  S
C201        N202   1.357       .  A
C201        N206   1.367       .  A
N202        C203   1.354       .  A
C203        C581   1.485       .  S
C203        N204   1.354       .  A
N204        C205   1.358       .  A
C205        C566   1.483       .  S
C205        N206   1.367       .  A
N207        C212   1.351       .  A
N207        C211   1.353   1_545  A
N207        H239   1.035       .  S
N208        C215   1.350       .  A
N208        C216   1.351   1_554  A
N209        C214   1.351       .  A
N209        C213   1.351   1_545  A
N209        H240   1.037       .  S
N210        C217   1.353       .  A
N210        C218   1.353   1_554  A
C211        C219   1.387       .  A
C211        C227   1.415       .  A
C212        C228   1.415       .  A
C212        C220   1.387       .  A
C213        C221   1.386       .  A
C213        C230   1.411       .  A
C214        C229   1.411       .  A
C214        C222   1.387       .  A
C215        C227   1.413       .  A
C215        C223   1.387       .  A
C216        C230   1.412       .  A
C216        C224   1.386       .  A
C217        C225   1.387       .  A
C217        C228   1.416       .  A
C218        C226   1.385       .  A
C218        C229   1.415       .  A
C219        C220   1.378   1_565  A
C219        H231   1.082       .  S
C220        H232   1.082       .  S
C221        C222   1.375   1_565  A
C221        H233   1.082       .  S
C222        H234   1.082       .  S
C223        C224   1.371   1_554  A
C223        H235   1.083       .  S
C224        H236   1.082       .  S
C225        C226   1.375   1_554  A
C225        H237   1.082       .  S
C226        H238   1.082       .  S
C227        C734   1.484       .  S
C228        C686   1.487       .  S
C229        C638   1.487       .  S
C230        C590   1.485       .  S
C241        C821   1.481       .  S
C241        N242   1.367       .  A
C241        N246   1.357       .  A
N242        C243   1.367       .  A
C243        C518   1.478       .  S
C243        N244   1.355       .  A
N244        C245   1.352       .  A
C245        C533   1.476       .  S
C245        N246   1.353       .  A
C247        C461   1.472       .  S
C247        N248   1.358       .  A
C247        N252   1.364       .  A
N248        C249   1.353       .  A
C249        C485   1.475       .  S
C249        N250   1.354       .  A
N250        C251   1.357       .  A
C251        C758   1.474       .  S
C251        N252   1.363       .  A
C253        C413   1.477       .  S
C253        N254   1.364       .  A
C253        N258   1.357       .  A
N254        C255   1.364       .  A
C255        C797   1.475       .  S
C255        N256   1.356       .  A
N256        C257   1.353       .  A
C257        C437   1.483       .  S
C257        N258   1.354       .  A
C259        C773   1.476       .  S
C259        N260   1.353       .  A
C259        N264   1.365       .  A
N260        C261   1.352       .  A
C261        C389   1.498       .  S
C261        N262   1.359       .  A
N262        C263   1.361       .  A
C263        C365   1.489       .  S
C263        N264   1.366       .  A
N265        C270   1.354   1_455  A
N265        C269   1.354       .  A
N265        H297   1.038       .  S
N266        C273   1.349   1_545  A
N266        C274   1.349       .  A
N267        C272   1.353   1_455  A
N267        C271   1.353       .  A
N267        H298   1.038       .  S
N268        C275   1.350   1_545  A
N268        C276   1.350       .  A
C269        C277   1.386       .  A
C269        C285   1.415       .  A
C270        C286   1.417       .  A
C270        C278   1.387       .  A
C271        C279   1.386       .  A
C271        C288   1.412       .  A
C272        C287   1.415       .  A
C272        C280   1.388       .  A
C273        C285   1.410       .  A
C273        C281   1.386   1_565  A
C274        C288   1.410       .  A
C274        C282   1.387       .  A
C275        C283   1.387       .  A
C275        C286   1.411       .  A
C276        C284   1.385       .  A
C276        C287   1.411       .  A
C277        C278   1.373   1_455  A
C277        H289   1.082       .  S
C278        H290   1.082       .  S
C279        C280   1.372   1_455  A
C279        H291   1.082       .  S
C280        H292   1.082       .  S
C281        C282   1.373       .  A
C281        H293   1.083   1_545  S
C282        H294   1.082       .  S
C283        C284   1.373   1_565  A
C283        H295   1.082       .  S
C284        H296   1.082       .  S
C285        C542   1.485       .  S
C286        C398   1.484       .  S
C287        C494   1.485       .  S
C288        C446   1.481       .  S
O299       Zr311   2.440   1_565  S
O299        C301   1.288       .  A
O300       Zr337   2.436       .  S
O300        C301   1.289       .  A
C301        C509   1.482       .  S
O302       Zr314   2.459       .  S
O302        C304   1.291       .  A
O303       Zr338   2.430       .  S
O303        C304   1.288       .  A
C304        C662   1.488       .  S
O305       Zr314   2.457   1_565  S
O305        C307   1.291       .  A
O306       Zr337   2.433       .  S
O306        C307   1.288       .  A
C307        C701   1.486       .  S
O308       Zr311   2.457       .  S
O308        C310   1.291       .  A
O309       Zr338   2.429       .  S
O309        C310   1.287       .  A
C310        C422   1.492       .  S
Zr311       O312   2.433       .  S
Zr311       O313   2.435       .  S
Zr311       O317   2.379   1_545  S
Zr311       O318   2.370       .  S
Zr311       O341   2.367       .  S
Zr311       O343   2.379   1_545  S
O312        H355   0.989       .  S
O313        H354   0.990       .  S
O313        H358   0.990       .  S
Zr314       O315   2.435       .  S
Zr314       O316   2.434       .  S
Zr314       O318   2.375       .  S
Zr314       O317   2.374   1_545  S
Zr314       O342   2.374   1_545  S
Zr314       O344   2.378       .  S
O315        H356   0.989       .  S
O315        H359   0.990       .  S
O316        H349   0.990       .  S
O317       Zr337   2.389       .  S
O318       Zr338   2.385       .  S
O318        H345   0.963       .  S
O319       Zr331   2.452       .  S
O319        C321   1.291       .  A
O320       Zr338   2.426       .  S
O320        C321   1.286       .  A
C321        C614   1.492       .  S
O322       Zr334   2.466   1_565  S
O322        C324   1.293       .  A
O323       Zr337   2.437       .  S
O323        C324   1.290       .  A
C324        C374   1.504       .  S
O325       Zr334   2.462       .  S
O325        C327   1.292       .  A
O326       Zr338   2.416       .  S
O326        C327   1.286       .  A
C327        C470   1.490       .  S
O328       Zr331   2.456   1_565  S
O328        C330   1.291       .  A
O329       Zr337   2.438       .  S
O329        C330   1.289       .  A
C330        C557   1.493       .  S
Zr331       O332   2.436       .  S
Zr331       O333   2.433       .  S
Zr331       O339   2.372       .  S
Zr331       O340   2.377   1_545  S
Zr331       O343   2.368   1_545  S
Zr331       O341   2.375       .  S
O332        H352   0.990       .  S
O332        H357   0.990       .  S
O333        H353   0.990       .  S
Zr334       O335   2.431       .  S
Zr334       O336   2.435       .  S
Zr334       O340   2.375   1_545  S
Zr334       O339   2.372       .  S
Zr334       O344   2.378       .  S
Zr334       O342   2.374   1_545  S
O335        H351   0.990       .  S
O336        H350   0.990       .  S
O336        H360   0.990       .  S
Zr337       O340   2.384       .  S
Zr337       O342   2.388       .  S
Zr337       O343   2.391       .  S
Zr338       O339   2.390       .  S
Zr338       O341   2.381       .  S
Zr338       O344   2.386       .  S
O339        H347   0.977       .  S
O342        H346   0.966       .  S
O343        H348   0.969       .  S
C361        C362   1.405       .  A
C361        C366   1.406       .  A
C361        H371   1.084       .  S
C362        C367   1.492       .  S
C362        C363   1.414       .  A
C363        C364   1.402       .  A
C363        S368   1.805       .  S
C364        C365   1.405       .  A
C364        H369   1.084       .  S
C365        C366   1.415       .  A
C366        S370   1.797       .  S
C367        C372   1.408       .  A
C367        C376   1.402       .  A
S368        H384   1.404       .  S
S370        H381   1.406       .  S
C372        C373   1.409       .  A
C372        S377   1.805       .  S
C373        C374   1.412       .  A
C373        H378   1.082       .  S
C374        C375   1.421       .  A
C375        C376   1.404       .  A
C375        S379   1.801       .  S
C376        H380   1.084       .  S
S377        H382   1.407       .  S
S379        H383   1.408       .  S
C385        C386   1.396       .  A
C385        C390   1.402       .  A
C385        H395   1.083       .  S
C386        C391   1.476       .  S
C386        C387   1.407       .  A
C387        C388   1.399       .  A
C387        S392   1.805       .  S
C388        C389   1.412       .  A
C388        H393   1.083       .  S
C389        C390   1.427       .  A
C390        S394   1.811       .  S
C391        C396   1.408       .  A
C391        C400   1.403       .  A
S392        H408   1.405       .  S
S394        H405   1.407       .  S
C396        C397   1.398       .  A
C396        S401   1.807       .  S
C397        C398   1.402       .  A
C397        H402   1.083       .  S
C398        C399   1.412       .  A
C399        C400   1.401       .  A
C399        S403   1.802       .  S
C400        H404   1.084       .  S
S401        H406   1.407       .  S
S403        H407   1.405       .  S
C409        C410   1.403       .  A
C409        C414   1.399       .  A
C409        H419   1.084       .  S
C410        C415   1.490       .  S
C410        C411   1.417       .  A
C411        C412   1.405       .  A
C411        S416   1.803       .  S
C412        C413   1.403       .  A
C412        H417   1.084       .  S
C413        C414   1.412       .  A
C414        S418   1.804       .  S
C415        C420   1.412       .  A
C415        C424   1.403       .  A
S416        H432   1.406       .  S
S418        H429   1.407       .  S
C420        C421   1.406       .  A
C420        S425   1.808       .  S
C421        C422   1.407       .  A
C421        H426   1.082       .  S
C422        C423   1.418       .  A
C423        C424   1.403       .  A
C423        S427   1.802       .  S
C424        H428   1.084       .  S
S425        H430   1.406       .  S
S427        H431   1.407       .  S
C433        C434   1.401       .  A
C433        C438   1.396       .  A
C433        H443   1.084       .  S
C434        C439   1.479       .  S
C434        C435   1.411       .  A
C435        C436   1.399       .  A
C435        S440   1.804       .  S
C436        C437   1.408       .  A
C436        H441   1.084       .  S
C437        C438   1.416       .  A
C438        S442   1.803       .  S
C439        C444   1.411       .  A
C439        C448   1.402       .  A
S440        H456   1.405       .  S
S442        H453   1.408       .  S
C444        C445   1.402       .  A
C444        S449   1.805       .  S
C445        C446   1.401       .  A
C445        H450   1.083       .  S
C446        C447   1.412       .  A
C447        C448   1.396       .  A
C447        S451   1.805       .  S
C448        H452   1.084       .  S
S449        H454   1.407       .  S
S451        H455   1.403       .  S
C457        C458   1.404       .  A
C457        C462   1.396       .  A
C457        H467   1.084       .  S
C458        C463   1.489       .  S
C458        C459   1.417       .  A
C459        C460   1.404       .  A
C459        S464   1.804       .  S
C460        C461   1.402       .  A
C460        H465   1.084       .  S
C461        C462   1.410       .  A
C462        S466   1.804       .  S
C463        C468   1.410       .  A
C463        C472   1.404       .  A
S464        H480   1.406       .  S
S466        H477   1.407       .  S
C468        C469   1.404       .  A
C468        S473   1.807       .  S
C469        C470   1.408       .  A
C469        H474   1.083       .  S
C470        C471   1.416       .  A
C471        C472   1.404       .  A
C471        S475   1.807       .  S
C472        H476   1.083       .  S
S473        H478   1.406       .  S
S475        H479   1.407       .  S
C481        C482   1.401       .  A
C481        C486   1.401       .  A
C481        H491   1.084       .  S
C482        C487   1.476       .  S
C482        C483   1.412       .  A
C483        C484   1.396       .  A
C483        S488   1.806       .  S
C484        C485   1.402       .  A
C484        H489   1.084       .  S
C485        C486   1.415       .  A
C486        S490   1.802       .  S
C487        C492   1.408       .  A
C487        C496   1.402       .  A
S488        H504   1.403       .  S
S490        H501   1.406       .  S
C492        C493   1.400       .  A
C492        S497   1.806       .  S
C493        C494   1.404       .  A
C493        H498   1.083       .  S
C494        C495   1.413       .  A
C495        C496   1.400       .  A
C495        S499   1.805       .  S
C496        H500   1.084       .  S
S497        H502   1.407       .  S
S499        H503   1.404       .  S
C505        C506   1.402       .  A
C505        C510   1.399       .  A
C505        H515   1.084       .  S
C506        C511   1.484       .  S
C506        C507   1.414       .  A
C507        C508   1.404       .  A
C507        S512   1.805       .  S
C508        C509   1.406       .  A
C508        H513   1.084       .  S
C509        C510   1.415       .  A
C510        S514   1.804       .  S
C511        C516   1.409       .  A
C511        C520   1.403       .  A
S512        H528   1.404       .  S
S514        H525   1.406       .  S
C516        C517   1.405       .  A
C516        S521   1.806       .  S
C517        C518   1.406       .  A
C517        H522   1.083       .  S
C518        C519   1.411       .  A
C519        C520   1.401       .  A
C519        S523   1.799       .  S
C520        H524   1.084       .  S
S521        H526   1.407       .  S
S523        H527   1.406       .  S
C529        C530   1.401       .  A
C529        C534   1.397       .  A
C529        H539   1.084       .  S
C530        C535   1.474       .  S
C530        C531   1.411       .  A
C531        C532   1.397       .  A
C531        S536   1.807       .  S
C532        C533   1.406       .  A
C532        H537   1.084       .  S
C533        C534   1.414       .  A
C534        S538   1.804       .  S
C535        C540   1.409       .  A
C535        C544   1.400       .  A
S536        H552   1.404       .  S
S538        H549   1.407       .  S
C540        C541   1.401       .  A
C540        S545   1.806       .  S
C541        C542   1.402       .  A
C541        H546   1.083       .  S
C542        C543   1.415       .  A
C543        C544   1.398       .  A
C543        S547   1.806       .  S
C544        H548   1.084       .  S
S545        H550   1.406       .  S
S547        H551   1.405       .  S
C553        C554   1.403       .  A
C553        C558   1.406       .  A
C553        H563   1.084       .  S
C554        C559   1.490       .  S
C554        C555   1.415       .  A
C555        C556   1.403       .  A
C555        S560   1.806       .  S
C556        C557   1.406       .  A
C556        H561   1.084       .  S
C557        C558   1.418       .  A
C558        S562   1.802       .  S
C559        C564   1.413       .  A
C559        C568   1.400       .  A
S560        H576   1.404       .  S
S562        H573   1.407       .  S
C564        C565   1.411       .  A
C564        S569   1.804       .  S
C565        C566   1.405       .  A
C565        H570   1.083       .  S
C566        C567   1.415       .  A
C567        C568   1.400       .  A
C567        S571   1.805       .  S
C568        H572   1.084       .  S
S569        H574   1.407       .  S
S571        H575   1.407       .  S
C577        C578   1.400       .  A
C577        C582   1.403       .  A
C577        H587   1.083       .  S
C578        C583   1.475       .  S
C578        C579   1.408       .  A
C579        C580   1.399       .  A
C579        S584   1.804       .  S
C580        C581   1.407       .  A
C580        H585   1.084       .  S
C581        C582   1.417       .  A
C582        S586   1.808       .  S
C583        C588   1.409       .  A
C583        C592   1.400       .  A
S584        H600   1.405       .  S
S586        H597   1.406       .  S
C588        C589   1.400       .  A
C588        S593   1.805       .  S
C589        C590   1.403       .  A
C589        H594   1.083       .  S
C590        C591   1.414       .  A
C591        C592   1.397       .  A
C591        S595   1.804       .  S
C592        H596   1.084       .  S
S593        H598   1.407       .  S
S595        H599   1.406       .  S
C601        C602   1.403       .  A
C601        C606   1.400       .  A
C601        H611   1.084       .  S
C602        C607   1.487       .  S
C602        C603   1.416       .  A
C603        C604   1.407       .  A
C603        S608   1.806       .  S
C604        C605   1.404       .  A
C604        H609   1.084       .  S
C605        C606   1.411       .  A
C606        S610   1.803       .  S
C607        C612   1.410       .  A
C607        C616   1.403       .  A
S608        H624   1.404       .  S
S610        H621   1.407       .  S
C612        C613   1.401       .  A
C612        S617   1.808       .  S
C613        C614   1.406       .  A
C613        H618   1.082       .  S
C614        C615   1.420       .  A
C615        C616   1.406       .  A
C615        S619   1.803       .  S
C616        H620   1.084       .  S
S617        H622   1.407       .  S
S619        H623   1.407       .  S
C625        C626   1.402       .  A
C625        C630   1.408       .  A
C625        H635   1.083       .  S
C626        C631   1.478       .  S
C626        C627   1.407       .  A
C627        C628   1.394       .  A
C627        S632   1.804       .  S
C628        C629   1.407       .  A
C628        H633   1.084       .  S
C629        C630   1.419       .  A
C630        S634   1.809       .  S
C631        C636   1.409       .  A
C631        C640   1.400       .  A
S632        H648   1.405       .  S
S634        H645   1.406       .  S
C636        C637   1.405       .  A
C636        S641   1.804       .  S
C637        C638   1.404       .  A
C637        H642   1.083       .  S
C638        C639   1.414       .  A
C639        C640   1.396       .  A
C639        S643   1.804       .  S
C640        H644   1.084       .  S
S641        H646   1.407       .  S
S643        H647   1.406       .  S
C649        C650   1.407       .  A
C649        C654   1.408       .  A
C649        H659   1.084       .  S
C650        C655   1.488       .  S
C650        C651   1.411       .  A
C651        C652   1.396       .  A
C651        S656   1.804       .  S
C652        C653   1.404       .  A
C652        H657   1.084       .  S
C653        C654   1.414       .  A
C654        S658   1.798       .  S
C655        C660   1.409       .  A
C655        C664   1.403       .  A
S656        H672   1.406       .  S
S658        H669   1.406       .  S
C660        C661   1.408       .  A
C660        S665   1.805       .  S
C661        C662   1.408       .  A
C661        H666   1.083       .  S
C662        C663   1.416       .  A
C663        C664   1.400       .  A
C663        S667   1.802       .  S
C664        H668   1.084       .  S
S665        H670   1.406       .  S
S667        H671   1.406       .  S
C673        C674   1.402       .  A
C673        C678   1.402       .  A
C673        H683   1.084       .  S
C674        C679   1.479       .  S
C674        C675   1.411       .  A
C675        C676   1.396       .  A
C675        S680   1.805       .  S
C676        C677   1.405       .  A
C676        H681   1.084       .  S
C677        C678   1.416       .  A
C678        S682   1.804       .  S
C679        C684   1.409       .  A
C679        C688   1.403       .  A
S680        H696   1.404       .  S
S682        H693   1.408       .  S
C684        C685   1.400       .  A
C684        S689   1.807       .  S
C685        C686   1.403       .  A
C685        H690   1.083       .  S
C686        C687   1.414       .  A
C687        C688   1.403       .  A
C687        S691   1.804       .  S
C688        H692   1.084       .  S
S689        H694   1.407       .  S
S691        H695   1.403       .  S
C697        C698   1.404       .  A
C697        C702   1.402       .  A
C697        H707   1.084       .  S
C698        C703   1.488       .  S
C698        C699   1.414       .  A
C699        C700   1.405       .  A
C699        S704   1.804       .  S
C700        C701   1.406       .  A
C700        H705   1.084       .  S
C701        C702   1.414       .  A
C702        S706   1.803       .  S
C703        C708   1.412       .  A
C703        C712   1.401       .  A
S704        H720   1.404       .  S
S706        H717   1.406       .  S
C708        C709   1.410       .  A
C708        S713   1.804       .  S
C709        C710   1.404       .  A
C709        H714   1.083       .  S
C710        C711   1.414       .  A
C711        C712   1.400       .  A
C711        S715   1.804       .  S
C712        H716   1.084       .  S
S713        H718   1.407       .  S
S715        H719   1.407       .  S
C721        C722   1.402       .  A
C721        C726   1.399       .  A
C721        H731   1.084       .  S
C722        C727   1.473       .  S
C722        C723   1.411       .  A
C723        C724   1.396       .  A
C723        S728   1.806       .  S
C724        C725   1.402       .  A
C724        H729   1.084       .  S
C725        C726   1.413       .  A
C726        S730   1.803       .  S
C727        C732   1.408       .  A
C727        C736   1.400       .  A
S728        H744   1.405       .  S
S730        H741   1.407       .  S
C732        C733   1.404       .  A
C732        S737   1.805       .  S
C733        C734   1.404       .  A
C733        H738   1.083       .  S
C734        C735   1.409       .  A
C735        C736   1.398       .  A
C735        S739   1.807       .  S
C736        H740   1.083       .  S
S737        H742   1.407       .  S
S739        H743   1.407       .  S
C745        C746   1.402       .  A
C745        C750   1.404       .  A
C745        H755   1.084       .  S
C746        C751   1.488       .  S
C746        C747   1.413       .  A
C747        C748   1.402       .  A
C747        S752   1.806       .  S
C748        C749   1.408       .  A
C748        H753   1.084       .  S
C749        C750   1.421       .  A
C750        S754   1.801       .  S
C751        C756   1.413       .  A
C751        C760   1.403       .  A
S752        H768   1.406       .  S
S754        H765   1.406       .  S
C756        C757   1.407       .  A
C756        S761   1.804       .  S
C757        C758   1.402       .  A
C757        H762   1.083       .  S
C758        C759   1.412       .  A
C759        C760   1.399       .  A
C759        S763   1.805       .  S
C760        H764   1.084       .  S
S761        H766   1.407       .  S
S763        H767   1.407       .  S
C769        C770   1.401       .  A
C769        C774   1.400       .  A
C769        H779   1.084       .  S
C770        C775   1.483       .  S
C770        C771   1.413       .  A
C771        C772   1.404       .  A
C771        S776   1.804       .  S
C772        C773   1.405       .  A
C772        H777   1.084       .  S
C773        C774   1.413       .  A
C774        S778   1.801       .  S
C775        C780   1.410       .  A
C775        C784   1.401       .  A
S776        H792   1.405       .  S
S778        H789   1.401       .  S
C780        C781   1.404       .  A
C780        S785   1.808       .  S
C781        C782   1.406       .  A
C781        H786   1.083       .  S
C782        C783   1.418       .  A
C783        C784   1.403       .  A
C783        S787   1.804       .  S
C784        H788   1.084       .  S
S785        H790   1.407       .  S
S787        H791   1.407       .  S
C793        C794   1.403       .  A
C793        C798   1.402       .  A
C793        H803   1.084       .  S
C794        C799   1.480       .  S
C794        C795   1.410       .  A
C795        C796   1.399       .  A
C795        S800   1.803       .  S
C796        C797   1.404       .  A
C796        H801   1.084       .  S
C797        C798   1.413       .  A
C798        S802   1.800       .  S
C799        C804   1.406       .  A
C799        C808   1.401       .  A
S800        H816   1.405       .  S
S802        H813   1.405       .  S
C804        C805   1.405       .  A
C804        S809   1.805       .  S
C805        C806   1.409       .  A
C805        H810   1.083       .  S
C806        C807   1.417       .  A
C807        C808   1.399       .  A
C807        S811   1.803       .  S
C808        H812   1.084       .  S
S809        H814   1.407       .  S
S811        H815   1.407       .  S
C817        C818   1.402       .  A
C817        C822   1.400       .  A
C817        H827   1.084       .  S
C818        C823   1.491       .  S
C818        C819   1.416       .  A
C819        C820   1.407       .  A
C819        S824   1.803       .  S
C820        C821   1.404       .  A
C820        H825   1.084       .  S
C821        C822   1.415       .  A
C822        S826   1.805       .  S
C823        C828   1.411       .  A
C823        C832   1.402       .  A
S824        H840   1.405       .  S
S826        H837   1.407       .  S
C828        C829   1.407       .  A
C828        S833   1.807       .  S
C829        C830   1.408       .  A
C829        H834   1.083       .  S
C830        C831   1.420       .  A
C831        C832   1.404       .  A
C831        S835   1.802       .  S
C832        H836   1.084       .  S
S833        H838   1.407       .  S
S835        H839   1.405       .  S
C841        C842   1.400       .  A
C841        C846   1.397       .  A
C841        H851   1.084       .  S
C842        C847   1.485       .  S
C842        C843   1.415       .  A
C843        C844   1.407       .  A
C843        S848   1.803       .  S
C844        C845   1.405       .  A
C844        H849   1.084       .  S
C845        C846   1.416       .  A
C846        S850   1.805       .  S
C847        C852   1.409       .  A
C847        C856   1.401       .  A
S848        H864   1.405       .  S
S850        H861   1.407       .  S
C852        C853   1.405       .  A
C852        S857   1.808       .  S
C853        C854   1.410       .  A
C853        H858   1.082       .  S
C854        C855   1.420       .  A
C855        C856   1.402       .  A
C855        S859   1.802       .  S
C856        H860   1.084       .  S
S857        H862   1.407       .  S
S859        H863   1.408       .  S
C865        C866   1.403       .  A
C865        C870   1.401       .  A
C865        H875   1.084       .  S
C866        C871   1.473       .  S
C866        C867   1.411       .  A
C867        C868   1.394       .  A
C867        S872   1.805       .  S
C868        C869   1.401       .  A
C868        H873   1.084       .  S
C869        C870   1.411       .  A
C870        S874   1.803       .  S
C871        C876   1.407       .  A
C871        C880   1.399       .  A
S872        H888   1.404       .  S
S874        H885   1.405       .  S
C876        C877   1.400       .  A
C876        S881   1.807       .  S
C877        C878   1.407       .  A
C877        H882   1.082       .  S
C878        C879   1.417       .  A
C879        C880   1.398       .  A
C879        S883   1.801       .  S
C880        H884   1.084       .  S
S881        H886   1.407       .  S
S883        H887   1.407       .  S
C889        C890   1.402       .  A
C889        C894   1.399       .  A
C889        H899   1.084       .  S
C890        C895   1.483       .  S
C890        C891   1.414       .  A
C891        C892   1.405       .  A
C891        S896   1.804       .  S
C892        C893   1.404       .  A
C892        H897   1.084       .  S
C893        C894   1.413       .  A
C894        S898   1.805       .  S
C895        C900   1.410       .  A
C895        C904   1.400       .  A
S896        H912   1.404       .  S
S898        H909   1.406       .  S
C900        C901   1.405       .  A
C900        S905   1.807       .  S
C901        C902   1.407       .  A
C901        H906   1.083       .  S
C902        C903   1.418       .  A
C903        C904   1.401       .  A
C903        S907   1.803       .  S
C904        H908   1.084       .  S
S905        H910   1.407       .  S
S907        H911   1.407       .  S
C913        C914   1.403       .  A
C913        C918   1.401       .  A
C913        H923   1.084       .  S
C914        C919   1.480       .  S
C914        C915   1.410       .  A
C915        C916   1.397       .  A
C915        S920   1.804       .  S
C916        C917   1.408       .  A
C916        H921   1.084       .  S
C917        C918   1.418       .  A
C918        S922   1.803       .  S
C919        C924   1.411       .  A
C919        C928   1.400       .  A
S920        H936   1.405       .  S
S922        H933   1.407       .  S
C924        C925   1.406       .  A
C924        S929   1.805       .  S
C925        C926   1.404       .  A
C925        H930   1.083       .  S
C926        C927   1.415       .  A
C927        C928   1.395       .  A
C927        S931   1.808       .  S
C928        H932   1.084       .  S
S929        H934   1.407       .  S
S931        H935   1.403       .  S
C937        C938   1.405       .  A
C937        C942   1.404       .  A
C937        H947   1.084       .  S
C938        C943   1.485       .  S
C938        C939   1.414       .  A
C939        C940   1.401       .  A
C939        S944   1.807       .  S
C940        C941   1.404       .  A
C940        H945   1.084       .  S
C941        C942   1.412       .  A
C942        S946   1.800       .  S
C943        C948   1.409       .  A
C943        C952   1.403       .  A
S944        H960   1.402       .  S
S946        H957   1.405       .  S
C948        C949   1.408       .  A
C948        S953   1.804       .  S
C949        C950   1.407       .  A
C949        H954   1.083       .  S
C950        C951   1.415       .  A
C951        C952   1.401       .  A
C951        S955   1.802       .  S
C952        H956   1.084       .  S
S953        H958   1.407       .  S
S955        H959   1.407       .  S
C961        C962   1.399       .  A
C961        C966   1.396       .  A
C961        H971   1.084       .  S
C962        C967   1.474       .  S
C962        C963   1.409       .  A
C963        C964   1.396       .  A
C963        S968   1.805       .  S
C964        C965   1.410       .  A
C964        H969   1.083       .  S
C965        C966   1.421       .  A
C966        S970   1.803       .  S
C967        C972   1.409       .  A
C967        C976   1.402       .  A
S968        H984   1.406       .  S
S970        H981   1.407       .  S
C972        C973   1.399       .  A
C972        S977   1.808       .  S
C973        C974   1.404       .  A
C973        H978   1.083       .  S
C974        C975   1.409       .  A
C975        C976   1.397       .  A
C975        S979   1.802       .  S
C976        H980   1.084       .  S
S977        H982   1.407       .  S
S979        H983   1.405       .  S
C985        C986   1.403       .  A
C985        C990   1.403       .  A
C985        H995   1.084       .  S
C986        C991   1.490       .  S
C986        C987   1.414       .  A
C987        C988   1.404       .  A
C987        S992   1.803       .  S
C988        C989   1.406       .  A
C988        H993   1.084       .  S
C989        C990   1.416       .  A
C990        S994   1.803       .  S
C991        C996   1.408       .  A
C991       C1000   1.406       .  A
S992       H1008   1.406       .  S
S994       H1005   1.407       .  S
C996        C997   1.401       .  A
C996       S1001   1.808       .  S
C997        C998   1.408       .  A
C997       H1002   1.083       .  S
C998        C999   1.416       .  A
C999       C1000   1.409       .  A
C999       S1003   1.798       .  S
C1000      H1004   1.084       .  S
S1001      H1006   1.407       .  S
S1003      H1007   1.406       .  S
C1009      C1010   1.400       .  A
C1009      C1014   1.396       .  A
C1009      H1019   1.084       .  S
C1010      C1015   1.468       .  S
C1010      C1011   1.409       .  A
C1011      C1012   1.395       .  A
C1011      S1016   1.806       .  S
C1012      C1013   1.405       .  A
C1012      H1017   1.084       .  S
C1013      C1014   1.413       .  A
C1014      S1018   1.803       .  S
C1015      C1020   1.408       .  A
C1015      C1024   1.399       .  A
S1016      H1032   1.404       .  S
S1018      H1029   1.407       .  S
C1020      C1021   1.400       .  A
C1020      S1025   1.806       .  S
C1021      C1022   1.402       .  A
C1021      H1026   1.083       .  S
C1022      C1023   1.414       .  A
C1023      C1024   1.394       .  A
C1023      S1027   1.807       .  S
C1024      H1028   1.084       .  S
S1025      H1030   1.406       .  S
S1027      H1031   1.405       .  S
C1033      C1034   1.403       .  A
C1033      C1038   1.400       .  A
C1033      H1043   1.084       .  S
C1034      C1039   1.489       .  S
C1034      C1035   1.417       .  A
C1035      C1036   1.405       .  A
C1035      S1040   1.806       .  S
C1036      C1037   1.403       .  A
C1036      H1041   1.084       .  S
C1037      C1038   1.413       .  A
C1038      S1042   1.804       .  S
C1039      C1044   1.412       .  A
C1039      C1048   1.402       .  A
S1040      H1056   1.403       .  S
S1042      H1053   1.406       .  S
C1044      C1045   1.404       .  A
C1044      S1049   1.808       .  S
C1045      C1046   1.406       .  A
C1045      H1050   1.083       .  S
C1046      C1047   1.419       .  A
C1047      C1048   1.404       .  A
C1047      S1051   1.802       .  S
C1048      H1052   1.084       .  S
S1049      H1054   1.407       .  S
S1051      H1055   1.407       .  S
C1057      C1058   1.404       .  A
C1057      C1062   1.400       .  A
C1057      H1067   1.084       .  S
C1058      C1063   1.488       .  S
C1058      C1059   1.417       .  A
C1059      C1060   1.405       .  A
C1059      S1064   1.805       .  S
C1060      C1061   1.403       .  A
C1060      H1065   1.084       .  S
C1061      C1062   1.411       .  A
C1062      S1066   1.804       .  S
C1063      C1068   1.410       .  A
C1063      C1072   1.402       .  A
S1064      H1080   1.404       .  S
S1066      H1077   1.407       .  S
C1068      C1069   1.409       .  A
C1068      S1073   1.805       .  S
C1069      C1070   1.409       .  A
C1069      H1074   1.083       .  S
C1070      C1071   1.417       .  A
C1071      C1072   1.398       .  A
C1071      S1075   1.802       .  S
C1072      H1076   1.084       .  S
S1073      H1078   1.406       .  S
S1075      H1079   1.408       .  S
C1081      C1082   1.402       .  A
C1081      C1086   1.401       .  A
C1081      H1091   1.084       .  S
C1082      C1087   1.489       .  S
C1082      C1083   1.415       .  A
C1083      C1084   1.407       .  A
C1083      S1088   1.802       .  S
C1084      C1085   1.404       .  A
C1084      H1089   1.084       .  S
C1085      C1086   1.413       .  A
C1086      S1090   1.803       .  S
C1087      C1092   1.410       .  A
C1087      C1096   1.403       .  A
S1088      H1104   1.406       .  S
S1090      H1101   1.407       .  S
C1092      C1093   1.408       .  A
C1092      S1097   1.805       .  S
C1093      C1094   1.407       .  A
C1093      H1098   1.083       .  S
C1094      C1095   1.415       .  A
C1095      C1096   1.402       .  A
C1095      S1099   1.803       .  S
C1096      H1100   1.084       .  S
S1097      H1102   1.407       .  S
S1099      H1103   1.407       .  S
C1105      C1106   1.403       .  A
C1105      C1110   1.400       .  A
C1105      H1115   1.084       .  S
C1106      C1111   1.490       .  S
C1106      C1107   1.415       .  A
C1107      C1108   1.405       .  A
C1107      S1112   1.803       .  S
C1108      C1109   1.403       .  A
C1108      H1113   1.084       .  S
C1109      C1110   1.413       .  A
C1110      S1114   1.804       .  S
C1111      C1116   1.408       .  A
C1111      C1120   1.401       .  A
S1112      H1128   1.407       .  S
S1114      H1125   1.406       .  S
C1116      C1117   1.407       .  A
C1116      S1121   1.806       .  S
C1117      C1118   1.412       .  A
C1117      H1122   1.082       .  S
C1118      C1119   1.424       .  A
C1119      C1120   1.406       .  A
C1119      S1123   1.810       .  S
C1120      H1124   1.083       .  S
S1121      H1126   1.406       .  S
S1123      H1127   1.406       .  S
C1129      C1130   1.400       .  A
C1129      C1134   1.399       .  A
C1129      H1139   1.084       .  S
C1130      C1135   1.486       .  S
C1130      C1131   1.414       .  A
C1131      C1132   1.406       .  A
C1131      S1136   1.803       .  S
C1132      C1133   1.404       .  A
C1132      H1137   1.084       .  S
C1133      C1134   1.417       .  A
C1134      S1138   1.806       .  S
C1135      C1140   1.409       .  A
C1135      C1144   1.403       .  A
S1136      H1152   1.407       .  S
S1138      H1149   1.406       .  S
C1140      C1141   1.404       .  A
C1140      S1145   1.806       .  S
C1141      C1142   1.408       .  A
C1141      H1146   1.083       .  S
C1142      C1143   1.416       .  A
C1143      C1144   1.401       .  A
C1143      S1147   1.803       .  S
C1144      H1148   1.084       .  S
S1145      H1150   1.407       .  S
S1147      H1151   1.407       .  S
C1153      C1154   1.404       .  A
C1153      C1158   1.402       .  A
C1153      H1163   1.084       .  S
C1154      C1159   1.489       .  S
C1154      C1155   1.415       .  A
C1155      C1156   1.404       .  A
C1155      S1160   1.805       .  S
C1156      C1157   1.402       .  A
C1156      H1161   1.084       .  S
C1157      C1158   1.412       .  A
C1158      S1162   1.804       .  S
C1159      C1164   1.410       .  A
C1159      C1168   1.402       .  A
S1160      H1176   1.406       .  S
S1162      H1173   1.405       .  S
C1164      C1165   1.409       .  A
C1164      S1169   1.805       .  S
C1165      C1166   1.408       .  A
C1165      H1170   1.083       .  S
C1166      C1167   1.416       .  A
C1167      C1168   1.404       .  A
C1167      S1171   1.808       .  S
C1168      H1172   1.083       .  S
S1169      H1174   1.407       .  S
S1171      H1175   1.407       .  S
C1177      C1178   1.401       .  A
C1177      C1182   1.398       .  A
C1177      H1187   1.084       .  S
C1178      C1183   1.486       .  S
C1178      C1179   1.417       .  A
C1179      C1180   1.407       .  A
C1179      S1184   1.806       .  S
C1180      C1181   1.404       .  A
C1180      H1185   1.084       .  S
C1181      C1182   1.413       .  A
C1182      S1186   1.804       .  S
C1183      C1188   1.410       .  A
C1183      C1192   1.401       .  A
S1184      H1200   1.402       .  S
S1186      H1197   1.407       .  S
C1188      C1189   1.406       .  A
C1188      S1193   1.807       .  S
C1189      C1190   1.408       .  A
C1189      H1194   1.083       .  S
C1190      C1191   1.420       .  A
C1191      C1192   1.404       .  A
C1191      S1195   1.802       .  S
C1192      H1196   1.084       .  S
S1193      H1198   1.407       .  S
S1195      H1199   1.406       .  S
C1201      C1202   1.402       .  A
C1201      C1206   1.399       .  A
C1201      H1211   1.084       .  S
C1202      C1207   1.484       .  S
C1202      C1203   1.412       .  A
C1203      C1204   1.404       .  A
C1203      S1208   1.802       .  S
C1204      C1205   1.407       .  A
C1204      H1209   1.084       .  S
C1205      C1206   1.416       .  A
C1206      S1210   1.802       .  S
C1207      C1212   1.411       .  A
C1207      C1216   1.400       .  A
S1208      H1224   1.405       .  S
S1210      H1221   1.407       .  S
C1212      C1213   1.408       .  A
C1212      S1217   1.805       .  S
C1213      C1214   1.404       .  A
C1213      H1218   1.083       .  S
C1214      C1215   1.413       .  A
C1215      C1216   1.399       .  A
C1215      S1219   1.805       .  S
C1216      H1220   1.084       .  S
S1217      H1222   1.407       .  S
S1219      H1223   1.405       .  S
