geometry optimzed in LAMMPS
_audit_creation_date              2020-11-30 
_audit_creation_method            'lammps2cif' 
_symmetry_space_group_name_H-M    'P1' 
_symmetry_Int_Tables_number       1 
_symmetry_cell_setting            triclinic 
loop_ 
_symmetry_equiv_pos_as_xyz 
  x,y,z 
_cell_length_a                    25.24728135 
_cell_length_b                    25.650005767638046 
_cell_length_c                    44.98018356128814 
_cell_angle_alpha                 89.99079800584437 
_cell_angle_beta                  89.96460462351165 
_cell_angle_gamma                 89.1825098611962 
loop_ 
_atom_site_label 
_atom_site_type_symbol 
_atom_site_fract_x 
_atom_site_fract_y 
_atom_site_fract_z 
_atom_site_charge 
C1          C  0.72964515  0.81802580  0.39573292     0.05200
C2          C  0.77301348  0.78242822  0.39750066     0.05100
C3          C  0.77406555  0.73852896  0.37844740    -0.15400
C4          C  0.73310055  0.72917496  0.35772050     0.05200
C5          C  0.68983805  0.76453254  0.35559040     0.05100
C6          C  0.68865558  0.80885063  0.37464242    -0.15400
H7          H  0.65552697  0.83606937  0.37323787     0.07200
H8          H  0.80707403  0.71114809  0.37984617     0.07200
C9          C  0.79464793  0.26401355  0.39652354     0.05200
C10         C  0.75414835  0.22642419  0.39567114     0.05100
C11         C  0.71147089  0.23319193  0.37551638    -0.15400
C12         C  0.70781083  0.27679921  0.35625660     0.05200
C13         C  0.74784668  0.31487168  0.35729743     0.05100
C14         C  0.79080658  0.30795929  0.37739162    -0.15400
H15         H  0.82171524  0.33686209  0.37799324     0.07200
H16         H  0.68069916  0.20414068  0.37482194     0.07200
C17         C  0.23755765  0.18232479  0.38505497     0.05200
C18         C  0.19141128  0.21305705  0.38095670     0.05100
C19         C  0.19271982  0.25613813  0.36135633    -0.15400
C20         C  0.23936949  0.26914420  0.34566529     0.05200
C21         C  0.28587547  0.23847006  0.34975376     0.05100
C22         C  0.28433079  0.19514833  0.36936083    -0.15400
H23         H  0.31983257  0.17155846  0.37261725     0.07200
H24         H  0.15739484  0.28021944  0.35864172     0.07200
C25         C  0.22542001  0.76681061  0.39274430     0.05200
C26         C  0.18828652  0.72615806  0.39428325     0.05100
C27         C  0.19772320  0.68019767  0.37720703    -0.15400
C28         C  0.24357319  0.67447682  0.35897261     0.05200
C29         C  0.28060090  0.71508101  0.35792778     0.05100
C30         C  0.27109422  0.76076799  0.37474011    -0.15400
H31         H  0.29946381  0.79205919  0.37372930     0.07200
H32         H  0.16923055  0.64903735  0.37796133     0.07200
C33         C  0.23836224  0.76963960  0.09702971     0.05200
C34         C  0.20439859  0.72595714  0.09528456     0.05100
C35         C  0.21399107  0.68257757  0.11412851    -0.15400
C36         C  0.25602517  0.68180094  0.13486988     0.05200
C37         C  0.28898345  0.72545390  0.13722001     0.05100
C38         C  0.28016596  0.76872699  0.11815619    -0.15400
H39         H  0.30589632  0.80207596  0.11987579     0.07200
H40         H  0.18799136  0.64933749  0.11293515     0.07200
C41         C  0.74595392  0.81544889  0.10778132     0.05200
C42         C  0.78950526  0.78072234  0.11089433     0.05100
C43         C  0.78511989  0.73665386  0.12950443    -0.15400
C44         C  0.73799687  0.72633423  0.14517661     0.05200
C45         C  0.69409765  0.76048623  0.14211736     0.05100
C46         C  0.69847596  0.80497338  0.12351301    -0.15400
H47         H  0.66487361  0.83144592  0.12125685     0.07200
H48         H  0.81860676  0.70997692  0.13167622     0.07200
C49         C  0.76796709  0.22477281  0.11024266     0.05200
C50         C  0.80876034  0.26146723  0.10932245     0.05100
C51         C  0.80404974  0.30756768  0.12648138    -0.15400
C52         C  0.75861846  0.31778329  0.14423292     0.05200
C53         C  0.71665283  0.28198033  0.14434409     0.05100
C54         C  0.72197098  0.23538599  0.12749067    -0.15400
H55         H  0.69017474  0.20743743  0.12769270     0.07200
H56         H  0.83584396  0.33552071  0.12606932     0.07200
Fe57       Fe  0.41183589  0.81969390  0.25450427     1.65800
Fe58       Fe  0.54366707  0.82722741  0.24652897     1.73200
Fe59       Fe  0.48856314  0.71140239  0.24860031     1.54400
O60         O  0.42585077  0.69900836  0.28017746    -0.78800
O61         O  0.55871260  0.80106718  0.20507512    -0.77100
O62         O  0.39341619  0.77802725  0.29099712    -0.81300
O63         O  0.37436589  0.76867869  0.22602964    -0.76200
O64         O  0.54083433  0.71578533  0.28569710    -0.77900
O65         O  0.50408206  0.89009359  0.22854210    -0.80700
C66         C  0.39170938  0.73406976  0.20812768     1.00100
C67         C  0.39643941  0.72984016  0.29582082     1.07500
O68         O  0.48044919  0.78564437  0.24934177    -1.09700
O69         O  0.52874002  0.85027808  0.28774289    -0.72100
O70         O  0.44346497  0.87304290  0.28435269    -0.75600
O71         O  0.43533723  0.70886465  0.21237126    -0.76300
C72         C  0.48657429  0.86837271  0.29894405     0.99000
O73         O  0.42399781  0.86302961  0.21748795    -0.74200
O74         O  0.59431675  0.77180978  0.26481994    -0.79400
C75         C  0.57029062  0.75388433  0.20006891     1.01600
C76         C  0.58243031  0.74356189  0.28676332     1.07500
O77         O  0.55246113  0.71651424  0.21641332    -0.75100
C78         C  0.46392232  0.88979792  0.21174857     1.05800
Fe79       Fe  0.64907860  0.09493572  0.50649335     1.65800
Fe80       Fe  0.64281956  0.96442310  0.51091781     1.73200
Fe81       Fe  0.76128072  0.02114923  0.50232197     1.54400
O82         O  0.76292743  0.07195385  0.46525875    -0.78800
O83         O  0.69865904  0.92781927  0.03150673    -0.77100
O84         O  0.69839977  0.12918907  0.47583258    -0.81300
O85         O  0.71614171  0.13102555  0.03534548    -0.76200
O86         O  0.75340124  0.95736912  0.47175655    -0.77900
O87         O  0.63500299  0.01441029  0.04992841    -0.80700
C88         C  0.76095891  0.11750692  0.04524120     1.00100
C89         C  0.73729789  0.11433377  0.46006760     1.07500
O90         O  0.68543142  0.02709534  0.50643007    -1.09700
O91         O  0.57777186  0.00055565  0.49263434    -0.72100
O92         O  0.60593262  0.07154809  0.47113810    -0.75600
O93         O  0.79022340  0.08133743  0.03340525    -0.76300
C94         C  0.58258067  0.02856852  0.46995425     0.99000
O95         O  0.61411128  0.09179818  0.03126200    -0.74200
O96         O  0.66708509  0.93696814  0.46994689    -0.79400
C97         C  0.74159489  0.93283939  0.04522769     1.01600
C98         C  0.71429679  0.93271049  0.46014386     1.07500
O99         O  0.77368324  0.96922546  0.03884631    -0.75100
C100        C  0.62103689  0.06182338  0.05330345     1.05800
Fe101      Fe  0.34116199  0.04590710  0.48598290     1.65800
Fe102      Fe  0.34070388  0.91492852  0.47987327     1.73200
Fe103      Fe  0.22776954  0.98200198  0.49384271     1.54400
O104        O  0.23627106  0.04700623  0.02782192    -0.78800
O105        O  0.29209323  0.89345682  0.44655085    -0.77100
O106        O  0.32160474  0.06912145  0.02983576    -0.81300
O107        O  0.27758122  0.09011154  0.47164304    -0.76200
O108        O  0.22554559  0.93083633  0.03136535    -0.77900
O109        O  0.38798431  0.94958840  0.44748974    -0.80700
C110        C  0.24367121  0.07524711  0.45304020     1.00100
C111        C  0.27436681  0.07324687  0.03923013     1.07500
O112        O  0.30294058  0.98026090  0.48706033    -1.09700
O113        O  0.38576435  0.91948810  0.02509268    -0.72100
O114        O  0.41044268  0.00124705  0.01676442    -0.75600
O115        O  0.21934562  0.03246316  0.45681635    -0.76300
C116        C  0.41371234  0.95834563  0.03093336     0.99000
O117        O  0.35976742  0.03218816  0.44284737    -0.74200
O118        O  0.28700509  0.87187917  0.01851486    -0.79400
C119        C  0.24235238  0.89079626  0.44671994     1.01600
C120        C  0.24900995  0.88665332  0.03495133     1.07500
O121        O  0.21314385  0.91810193  0.46437735    -0.75100
C122        C  0.38499171  0.99278385  0.43330211     1.05800
Fe123      Fe  0.44001115  0.18030581  0.24416846     1.65800
Fe124      Fe  0.57284608  0.18517489  0.24208989     1.73200
Fe125      Fe  0.49959886  0.29533932  0.24831839     1.54400
O126        O  0.44796815  0.29585719  0.21076070    -0.78800
O127        O  0.60782867  0.22830412  0.27524834    -0.77100
O128        O  0.39220172  0.24044079  0.22947299    -0.81300
O129        O  0.42238275  0.20078179  0.28660359    -0.76200
O130        O  0.56262029  0.30893990  0.21688771    -0.77900
O131        O  0.55239389  0.13544996  0.27438274    -0.80700
C132        C  0.41342196  0.24786653  0.29394701     1.00100
C133        C  0.40543397  0.26994688  0.20855602     1.07500
O134        O  0.50518192  0.22075614  0.24583216    -1.09700
O135        O  0.54315041  0.14117125  0.20753059    -0.72100
O136        O  0.45819776  0.16474033  0.20151358    -0.75600
O137        O  0.43507446  0.28679217  0.28026295    -0.76300
C138        C  0.50254344  0.14974461  0.19128318     0.99000
O139        O  0.47403849  0.11086445  0.25864849    -0.74200
O140        O  0.60123946  0.23129741  0.21004333    -0.79400
C141        C  0.59507818  0.26832474  0.29040856     1.01600
C142        C  0.59621457  0.27863972  0.20368033     1.07500
O143        O  0.55409114  0.29683565  0.28448260    -0.75100
C144        C  0.51402818  0.10490623  0.27516781     1.05800
C145        C  0.50846541  0.97898569  0.14995176     0.89400
C146        C  0.48904869  0.96059953  0.11950034    -0.50900
C147        C  0.48943844  0.99959559  0.09863459     0.12300
C148        C  0.50859202  0.05175910  0.11024338     0.23200
C149        C  0.56358472  0.00112555  0.14415122    -0.51600
C150        C  0.56387248  0.03893244  0.12297794     0.12400
C151        C  0.47320133  0.02583227  0.15766711    -0.51100
C152        C  0.47340418  0.06396344  0.13676847     0.13000
H153        H  0.47566247  0.92127261  0.11545938     0.17500
H154        H  0.50634881  0.08327863  0.09341701     0.03200
H155        H  0.59972333  0.98450600  0.15352957     0.17800
H156        H  0.45518427  0.03131029  0.17943965     0.17600
C157        C  0.55166003  0.02375618  0.34251228     0.89400
C158        C  0.49744487  0.01819508  0.35813120    -0.50900
C159        C  0.49752880  0.98022247  0.37943492     0.12300
C160        C  0.55068102  0.95268650  0.38322139     0.23200
C161        C  0.59089612  0.03389908  0.36731881    -0.51600
C162        C  0.58927113  0.99730841  0.38909715     0.12400
C163        C  0.56664743  0.96972997  0.33113262    -0.51100
C164        C  0.56272483  0.93178857  0.35231183     0.13000
H165        H  0.46270364  0.04150948  0.35243415     0.17500
H166        H  0.55176814  0.92177039  0.40055567     0.03200
H167        H  0.61219940  0.07022483  0.36958001     0.17800
H168        H  0.56897319  0.96093085  0.30750693     0.17600
Fe169      Fe  0.84573189  0.59250355  0.25096220     1.65800
Fe170      Fe  0.85268596  0.46087555  0.25184602     1.73200
Fe171      Fe  0.73263185  0.52182784  0.25146604     1.54400
O172        O  0.72615545  0.58422913  0.28282331    -0.78800
O173        O  0.81638943  0.43187443  0.21520222    -0.77100
O174        O  0.80743877  0.61689423  0.28857213    -0.81300
O175        O  0.79100878  0.62954877  0.22453893    -0.76200
O176        O  0.73126457  0.46913780  0.28773167    -0.77900
O177        O  0.90918642  0.49089804  0.22374341    -0.80700
C178        C  0.75175579  0.61516798  0.20947265     1.00100
C179        C  0.75911039  0.61435377  0.29588807     1.07500
O180        O  0.80978815  0.52499212  0.25148798    -1.09700
O181        O  0.89112455  0.48516679  0.28849966    -0.72100
O182        O  0.90797793  0.56752681  0.27710562    -0.75600
O183        O  0.72693940  0.57335341  0.21507213    -0.76300
C184        C  0.91485483  0.52738462  0.29299281     0.99000
O185        O  0.88504524  0.57256216  0.21304133    -0.74200
O186        O  0.80374845  0.42056135  0.28013663    -0.79400
C187        C  0.76852502  0.43201973  0.20709104     1.01600
C188        C  0.76122532  0.43012292  0.29408409     1.07500
O189        O  0.73242289  0.45980616  0.21984663    -0.75100
C190        C  0.91141595  0.53145771  0.20764479     1.05800
Fe191      Fe  0.89716105  0.67772593  0.00293044     1.65800
Fe192      Fe  0.02669132  0.66147053  0.50428291     1.73200
Fe193      Fe  0.98607603  0.78638090  0.50198342     1.54400
O194        O  0.93042800  0.79419185  0.46674485    -0.78800
O195        O  0.06723704  0.66962790  0.02722823    -0.77100
O196        O  0.86312122  0.74948603  0.48494758    -0.81300
O197        O  0.87713732  0.73018448  0.03469738    -0.76200
O198        O  0.04640265  0.77255160  0.46880756    -0.77900
O199        O  0.98603880  0.59063687  0.01196351    -0.80700
C200        C  0.89908069  0.76741653  0.04774205     1.00100
C201        C  0.88281145  0.77803491  0.46502548     1.07500
O202        O  0.97010561  0.71324700  0.50515430    -1.09700
O203        O  0.97933999  0.60921343  0.48224307    -0.72100
O204        O  0.90158235  0.64791596  0.47222379    -0.75600
O205        O  0.94245719  0.78709956  0.03879890    -0.76300
C206        C  0.93682515  0.61383451  0.46729962     0.99000
O207        O  0.91970790  0.62879149  0.03635450    -0.74200
O208        O  0.05506753  0.68601118  0.46408535    -0.79400
C209        C  0.07842116  0.71548856  0.03646420     1.01600
C210        C  0.06622375  0.73180124  0.45592289     1.07500
O211        O  0.05442912  0.75701949  0.02718851    -0.75100
C212        C  0.95340573  0.59248953  0.03326238     1.05800
Fe213      Fe  0.97663725  0.32494325  0.50308751     1.65800
Fe214      Fe  0.10125466  0.28091193  0.50023786     1.73200
Fe215      Fe  0.00072986  0.19683316  0.49830995     1.54400
O216        O  0.94484000  0.21598752  0.03050135    -0.78800
O217        O  0.10312965  0.25913334  0.45736332    -0.77100
O218        O  0.92796214  0.30043808  0.03814877    -0.81300
O219        O  0.92347360  0.29760078  0.47168239    -0.76200
O220        O  0.05775298  0.19877651  0.03318250    -0.77900
O221        O  0.09532964  0.35828366  0.48806243    -0.80700
C222        C  0.91688350  0.25453920  0.45826218     1.00100
C223        C  0.92193980  0.25338224  0.04476815     1.07500
O224        O  0.02468588  0.26725973  0.49993761    -1.09700
O225        O  0.08608940  0.32766171  0.04446131    -0.72100
O226        O  0.00927370  0.37195787  0.03917348    -0.75600
O227        O  0.94433116  0.21343144  0.46442069    -0.76300
C228        C  0.04803862  0.35471829  0.05482604     0.99000
O229        O  0.01510958  0.35907256  0.46903887    -0.74200
O230        O  0.12448458  0.23745248  0.01251731    -0.79400
C231        C  0.08890412  0.21492272  0.44788711     1.01600
C232        C  0.10556365  0.21330026  0.03417419     1.07500
O233        O  0.05830479  0.18396297  0.46280547    -0.75100
C234        C  0.06210134  0.37501204  0.46943916     1.05800
Fe235      Fe  0.17452024  0.56975656  0.25164131     1.65800
Fe236      Fe  0.14694505  0.44326590  0.24377489     1.73200
Fe237      Fe  0.27356772  0.48228777  0.24676583     1.54400
O238        O  0.28297453  0.54667984  0.21590386    -0.78800
O239        O  0.17995837  0.39835495  0.27726175    -0.77100
O240        O  0.20286320  0.58592627  0.21083045    -0.81300
O241        O  0.24347713  0.59641449  0.26882194    -0.76200
O242        O  0.26939871  0.43273509  0.20921187    -0.77900
O243        O  0.10225022  0.48082761  0.27659051    -0.80700
C244        C  0.26383033  0.57293994  0.29038801     1.00100
C245        C  0.24989529  0.57735120  0.20204340     1.07500
O246        O  0.19908694  0.49711302  0.24699104    -1.09700
O247        O  0.11461257  0.48496247  0.20898251    -0.72100
O248        O  0.10140170  0.55563961  0.23498024    -0.75600
O249        O  0.28060484  0.52646524  0.28671492    -0.76300
C250        C  0.09995905  0.53221246  0.21068041     0.99000
O251        O  0.14812446  0.55003566  0.29223828    -0.74200
O252        O  0.18773214  0.40036578  0.21192825    -0.79400
C253        C  0.22749427  0.39085070  0.28572141     1.01600
C254        C  0.23354075  0.40152161  0.20030619     1.07500
O255        O  0.26645724  0.41707298  0.27554108    -0.75100
C256        C  0.11604066  0.51324610  0.29666817     1.05800
C257        C  0.06604251  0.45103732  0.10934042     0.89400
C258        C  0.10846760  0.48808893  0.12029408    -0.50900
C259        C  0.08805721  0.53261080  0.13293773     0.12300
C260        C  0.02719050  0.53701105  0.13075870     0.23200
C261        C  0.02926805  0.44292488  0.13621689    -0.51600
C262        C  0.00806742  0.48808728  0.14713582     0.12400
C263        C  0.03384185  0.48307022  0.08702287    -0.51100
C264        C  0.01280438  0.52763502  0.09847983     0.13000
H265        H  0.14954752  0.47563191  0.12291580     0.17500
H266        H  0.01162443  0.57518085  0.13851940     0.03200
H267        H  0.02089997  0.40495988  0.14573960     0.17800
H268        H  0.02967039  0.47165477  0.06392664     0.17600
C269        C  0.03925843  0.46083069  0.40506924     0.89400
C270        C  0.00195725  0.45051143  0.37894487    -0.50900
C271        C  0.98826421  0.49435220  0.36369031     0.12300
C272        C  0.01350795  0.54409807  0.37569245     0.23200
C273        C  0.08683132  0.48864449  0.39189852    -0.51600
C274        C  0.07318863  0.53184304  0.37571636     0.12400
C275        C  0.01004592  0.50159528  0.42371727    -0.51100
C276        C  0.99607270  0.54488456  0.40790285     0.13000
H277        H  0.98750722  0.41219016  0.37304050     0.17500
H278        H  0.00298871  0.58089345  0.36403287     0.03200
H279        H  0.12593233  0.47045205  0.39073929     0.17800
H280        H  0.00075355  0.49639001  0.44711178     0.17600
C281        C  0.21389082  0.22532506  0.10095405     0.05200
C282        C  0.25913897  0.19218188  0.10187824     0.05100
C283        C  0.30093855  0.20470246  0.12176927    -0.15400
C284        C  0.29836624  0.24965718  0.14037521     0.05200
C285        C  0.25315289  0.28279919  0.13894542     0.05100
C286        C  0.21151845  0.27025644  0.11926057    -0.15400
H287        H  0.17685456  0.29567284  0.11820136     0.07200
H288        H  0.33560356  0.17934463  0.12280592     0.07200
C289        C  0.10190306  0.54079370  0.34813745    -0.13600
C290        C  0.09335473  0.50729827  0.32585352    -0.28700
H291        H  0.12555673  0.57548252  0.34543203     0.15500
H292        H  0.06920036  0.47314430  0.32926241     0.16000
C293        C  0.08670794  0.56123083  0.18396929    -0.13600
C294        C  0.11544905  0.55195678  0.15943497    -0.28700
H295        H  0.04758849  0.57900722  0.18320383     0.15500
H296        H  0.15618861  0.53831504  0.16228571     0.16000
C297        C  0.24432001  0.36408967  0.17651281    -0.10400
C298        C  0.24838214  0.32863964  0.15847627    -0.12000
C299        C  0.04874123  0.36920662  0.08585136    -0.13600
C300        C  0.08589370  0.40183681  0.09525145    -0.28700
H301        H  0.00982927  0.37052645  0.09622192     0.15500
H302        H  0.12331614  0.40360425  0.08331115     0.16000
C303        C  0.07664762  0.41423404  0.44790276    -0.13600
C304        C  0.05202820  0.41255983  0.42172383    -0.28700
H305        H  0.09800695  0.44844406  0.45511070     0.15500
H306        H  0.03255669  0.37687662  0.41492447     0.16000
C307        C  0.13810650  0.20870712  0.06063847    -0.10400
C308        C  0.17068055  0.21479427  0.08022056    -0.12000
C309        C  0.95855893  0.55260198  0.05568144    -0.13600
C310        C  0.98198530  0.56569801  0.08112907    -0.28700
H311        H  0.95673212  0.51229654  0.04848396     0.15500
H312        H  0.98418306  0.60646783  0.08762482     0.16000
C313        C  0.96594101  0.58828784  0.42041525    -0.13600
C314        C  0.93156492  0.57980852  0.44226126    -0.28700
H315        H  0.98071277  0.62727122  0.41624238     0.15500
H316        H  0.91676709  0.54092301  0.44649199     0.16000
C317        C  0.95148069  0.53027709  0.31774942    -0.13600
C318        C  0.95311206  0.49232576  0.33808283    -0.28700
H319        H  0.97656876  0.56405026  0.31919031     0.15500
H320        H  0.92867232  0.45806044  0.33572417     0.16000
C321        C  0.94581245  0.53122509  0.18159723    -0.13600
C322        C  0.97310510  0.48854945  0.17328129    -0.28700
H323        H  0.94691423  0.56691362  0.16865617     0.15500
H324        H  0.96958958  0.45251098  0.18591038     0.16000
C325        C  0.55091464  0.06414397  0.31896683    -0.13600
C326        C  0.51609869  0.06235216  0.29649304    -0.28700
H327        H  0.57827080  0.09631247  0.32097116     0.15500
H328        H  0.48747709  0.03119417  0.29501941     0.16000
C329        C  0.50610513  0.13774585  0.15984878    -0.13600
C330        C  0.46403459  0.11706163  0.14662428    -0.28700
H331        H  0.54564655  0.12860791  0.15163663     0.15500
H332        H  0.42460670  0.12505775  0.15539162     0.16000
C333        C  0.37231447  0.26978043  0.18185685    -0.10400
C334        C  0.34087174  0.26089985  0.16183009    -0.12000
C335        C  0.46996766  0.99657199  0.06805968    -0.13600
C336        C  0.44854423  0.95398687  0.05662762    -0.28700
H337        H  0.46803954  0.03302338  0.05571811     0.15500
H338        H  0.44990511  0.91710739  0.06844965     0.16000
C339        C  0.41551774  0.00008368  0.40610374    -0.13600
C340        C  0.45294467  0.96568840  0.39837001    -0.28700
H341        H  0.41312038  0.03798791  0.39536524     0.15500
H342        H  0.45668687  0.92897389  0.41031774     0.16000
C343        C  0.26297773  0.14650341  0.08176090    -0.10400
C344        C  0.26500924  0.11123883  0.06327911    -0.12000
C345        C  0.61218542  0.04987081  0.10620951    -0.13600
C346        C  0.60817864  0.08159687  0.08284188    -0.28700
H347        H  0.64204808  0.01884939  0.10607478     0.15500
H348        H  0.58333433  0.11645965  0.08393996     0.16000
C349        C  0.60355311  0.01292462  0.41899582    -0.13600
C350        C  0.56914164  0.00740411  0.44137713    -0.28700
H351        H  0.63956780  0.03517073  0.42195951     0.15500
H352        H  0.53331893  0.98490658  0.43928595     0.16000
C353        C  0.53800293  0.88354770  0.34292174    -0.13600
C354        C  0.49075558  0.88836124  0.32903577    -0.28700
H355        H  0.56539960  0.85209991  0.33714500     0.15500
H356        H  0.46289195  0.91920035  0.33506562     0.16000
C357        C  0.46332313  0.92176917  0.18513838    -0.13600
C358        C  0.50871230  0.93920143  0.17392075    -0.28700
H359        H  0.42563714  0.93162016  0.17472253     0.15500
H360        H  0.54632571  0.92810961  0.18405245     0.16000
C361        C  0.75657100  0.39721966  0.18268271    -0.10400
C362        C  0.75650582  0.36324336  0.16382285    -0.12000
C363        C  0.66941810  0.29172521  0.16290108    -0.10400
C364        C  0.63276979  0.29514059  0.18061115    -0.12000
C365        C  0.88635958  0.24540465  0.06960073    -0.10400
C366        C  0.85366031  0.25251850  0.08916518    -0.12000
C367        C  0.77567258  0.14613167  0.07158108    -0.10400
C368        C  0.77236937  0.17847157  0.09131367    -0.12000
C369        C  0.64588785  0.75118140  0.15941543    -0.10400
C370        C  0.60922773  0.74557065  0.17671280    -0.12000
C371        C  0.73608437  0.68208930  0.16560088    -0.10400
C372        C  0.73759479  0.64855556  0.18468268    -0.12000
C373        C  0.74935330  0.86035369  0.08751938    -0.10400
C374        C  0.75130833  0.89526316  0.06905811    -0.12000
C375        C  0.87140366  0.78539871  0.07397124    -0.10400
C376        C  0.83701588  0.78690038  0.09283413    -0.12000
C377        C  0.26427085  0.60651159  0.17573231    -0.10400
C378        C  0.26263679  0.63802254  0.15551040    -0.12000
C379        C  0.36025058  0.72602290  0.18144695    -0.10400
C380        C  0.33000593  0.72647072  0.16031178    -0.12000
C381        C  0.15931928  0.72437404  0.07469089    -0.10400
C382        C  0.12168675  0.72087688  0.05777872    -0.12000
C383        C  0.23289514  0.81465738  0.07676638    -0.10400
C384        C  0.23463746  0.85044039  0.05874476    -0.12000
C385        C  0.32685560  0.71143450  0.33814431    -0.10400
C386        C  0.36199492  0.71213192  0.31953199    -0.11200
C387        C  0.25177791  0.62919292  0.33945274    -0.10400
C388        C  0.26134674  0.59888794  0.31916575    -0.12000
C389        C  0.21893293  0.81411041  0.41062063    -0.10400
C390        C  0.22111015  0.85195956  0.42683734    -0.12000
C391        C  0.10546270  0.73566877  0.43200643    -0.10400
C392        C  0.14162240  0.73127447  0.41394046    -0.12000
C393        C  0.23869216  0.31373478  0.32525853    -0.10400
C394        C  0.23655671  0.34981646  0.30762329    -0.12000
C395        C  0.33451926  0.24976347  0.33303584    -0.10400
C396        C  0.37284104  0.25516126  0.31675176    -0.12000
C397        C  0.11314277  0.20079241  0.41982759    -0.10400
C398        C  0.14482825  0.20384008  0.39953553    -0.12000
C399        C  0.23734668  0.13972700  0.40683002    -0.10400
C400        C  0.23576372  0.10797714  0.42697138    -0.12000
C401        C  0.66399210  0.28055258  0.33473833    -0.10400
C402        C  0.62986772  0.27976741  0.31546495    -0.12000
C403        C  0.74669368  0.35963939  0.33684810    -0.10400
C404        C  0.74861658  0.39421345  0.31819294    -0.12000
C405        C  0.75097147  0.14820307  0.43526731    -0.10400
C406        C  0.75435923  0.18208561  0.41633170    -0.12000
C407        C  0.83972845  0.25812046  0.41717312    -0.10400
C408        C  0.87579539  0.25365361  0.43524211    -0.12000
C409        C  0.73687556  0.68407478  0.33783919    -0.10400
C410        C  0.74231626  0.64949222  0.31950647    -0.12000
C411        C  0.64768483  0.75536162  0.33341090    -0.10400
C412        C  0.61642732  0.74632467  0.31321984    -0.12000
C413        C  0.84889451  0.78918702  0.43936963    -0.10400
C414        C  0.81552957  0.78867719  0.41963847    -0.12000
C415        C  0.72598688  0.86242995  0.41642132    -0.10400
C416        C  0.72310164  0.89638403  0.43547806    -0.12000
C417        C  0.72955975  0.81696114  0.89725249     0.05200
C418        C  0.77518990  0.78438802  0.89732141     0.05100
C419        C  0.77781213  0.74019996  0.87854452    -0.15400
C420        C  0.73581888  0.72749645  0.85933881     0.05200
C421        C  0.69023433  0.76010399  0.85880523     0.05100
C422        C  0.68743762  0.80448527  0.87774268    -0.15400
H423        H  0.65237710  0.82937295  0.87725947     0.07200
H424        H  0.81280689  0.71517637  0.87908127     0.07200
C425        C  0.80263445  0.26097088  0.89101676     0.05200
C426        C  0.76886780  0.21768929  0.88820532     0.05100
C427        C  0.72699214  0.21965443  0.86699399    -0.15400
C428        C  0.71808554  0.26387183  0.84841144     0.05200
C429        C  0.75233341  0.30697626  0.85125007     0.05100
C430        C  0.79402695  0.30489697  0.87242497    -0.15400
H431        H  0.82007583  0.33794902  0.87447790     0.07200
H432        H  0.70083811  0.18666495  0.86512392     0.07200
C433        C  0.24950017  0.18899937  0.88806869     0.05200
C434        C  0.20836505  0.22673894  0.88584302     0.05100
C435        C  0.21449288  0.26995640  0.86666042    -0.15400
C436        C  0.26097460  0.27633375  0.84960985     0.05200
C437        C  0.30193984  0.23852870  0.85162241     0.05100
C438        C  0.29580768  0.19514564  0.87072153    -0.15400
H439        H  0.32742690  0.16623343  0.87226681     0.07200
H440        H  0.18304144  0.29906329  0.86518900     0.07200
C441        C  0.23134716  0.77304761  0.89252901     0.05200
C442        C  0.19078236  0.73579087  0.89257640     0.05100
C443        C  0.19754344  0.68938094  0.87579727    -0.15400
C444        C  0.24459132  0.67946049  0.85945754     0.05200
C445        C  0.28590978  0.71552521  0.86064250     0.05100
C446        C  0.27887208  0.76228436  0.87687792    -0.15400
H447        H  0.31028913  0.79066658  0.87706881     0.07200
H448        H  0.16593591  0.66123051  0.87519385     0.07200
C449        C  0.24773110  0.77819450  0.59930291     0.05200
C450        C  0.20329513  0.74517827  0.60076369     0.05100
C451        C  0.20319776  0.70366390  0.62165523    -0.15400
C452        C  0.24582560  0.69504376  0.64165163     0.05200
C453        C  0.28892173  0.72967492  0.64117200     0.05100
C454        C  0.28969670  0.77039562  0.61982920    -0.15400
H455        H  0.32315728  0.79642263  0.61929732     0.07200
H456        H  0.16960077  0.67783073  0.62235465     0.07200
C457        C  0.74689915  0.82450412  0.61315219     0.05200
C458        C  0.79051365  0.79020437  0.61664680     0.05100
C459        C  0.78571997  0.74631269  0.63552345    -0.15400
C460        C  0.73810019  0.73650955  0.65112240     0.05200
C461        C  0.69488462  0.77167311  0.64810559     0.05100
C462        C  0.69962502  0.81524471  0.62906027    -0.15400
H463        H  0.66623322  0.84189996  0.62645059     0.07200
H464        H  0.81888479  0.71927955  0.63774064     0.07200
C465        C  0.76027091  0.23271675  0.60436646     0.05200
C466        C  0.80287157  0.26735828  0.60543159     0.05100
C467        C  0.79806673  0.31314551  0.62300900    -0.15400
C468        C  0.75098647  0.32431827  0.63924823     0.05200
C469        C  0.70828832  0.28980960  0.63725692     0.05100
C470        C  0.71326560  0.24435271  0.61993873    -0.15400
H471        H  0.68056753  0.21744794  0.61890145     0.07200
H472        H  0.83091302  0.33972854  0.62424250     0.07200
Fe473      Fe  0.40777401  0.81927181  0.76040251     1.65800
Fe474      Fe  0.53961061  0.83383095  0.75662934     1.73200
Fe475      Fe  0.48992337  0.71449127  0.75210245     1.54400
O476        O  0.43042447  0.69559689  0.78386829    -0.78800
O477        O  0.56000633  0.81351649  0.71436575    -0.77100
O478        O  0.38735323  0.77037114  0.79285182    -0.81300
O479        O  0.37608974  0.77315941  0.72736170    -0.76200
O480        O  0.54179372  0.71556691  0.78887935    -0.77900
O481        O  0.49990935  0.89918471  0.74118492    -0.80700
C482        C  0.39323307  0.73650643  0.71079586     1.00100
C483        C  0.39727340  0.72351390  0.79871216     1.07500
O484        O  0.47827002  0.78879083  0.75557958    -1.09700
O485        O  0.51982180  0.85053483  0.79880242    -0.72100
O486        O  0.43313299  0.86763461  0.79468513    -0.75600
O487        O  0.43627174  0.71108563  0.71612060    -0.76300
C488        C  0.47596749  0.86572006  0.80967343     0.99000
O489        O  0.42122649  0.87088248  0.72784916    -0.74200
O490        O  0.59205653  0.77866438  0.77268051    -0.79400
C491        C  0.57097946  0.76704099  0.70659758     1.01600
C492        C  0.58171352  0.74473097  0.79193368     1.07500
O493        O  0.55230464  0.72698379  0.72024976    -0.75100
C494        C  0.45865714  0.90226835  0.72547676     1.05800
Fe495      Fe  0.67222286  0.10752086  0.00081403     1.65800
Fe496      Fe  0.65035995  0.97985112  0.00980969     1.73200
Fe497      Fe  0.77510123  0.02051525  0.00160028     1.54400
O498        O  0.78462135  0.06990058  0.96368337    -0.78800
O499        O  0.69952534  0.91871177  0.53081338    -0.77100
O500        O  0.72574776  0.13397716  0.97077832    -0.81300
O501        O  0.69331898  0.12077395  0.54064760    -0.76200
O502        O  0.76017454  0.95786319  0.97092141    -0.77900
O503        O  0.62000184  0.99044549  0.55196822    -0.80700
C504        C  0.74221933  0.11592069  0.54605560     1.00100
C505        C  0.76261630  0.11314902  0.95595861     1.07500
O506        O  0.70062294  0.03579119  0.00352301    -1.09700
O507        O  0.59076567  0.02243385  0.98990545    -0.72100
O508        O  0.62909473  0.08534337  0.96536399    -0.75600
O509        O  0.77327950  0.08409504  0.53222363    -0.76300
C510        C  0.59874854  0.04690290  0.96615842     0.99000
O511        O  0.59473792  0.07047395  0.53793144    -0.74200
O512        O  0.67175965  0.94506983  0.96988732    -0.79400
C513        C  0.73897219  0.93154814  0.54607391     1.01600
C514        C  0.71855355  0.93588572  0.96006201     1.07500
O515        O  0.76597548  0.97171057  0.53985708    -0.75100
C516        C  0.59595608  0.03341974  0.55674347     1.05800
Fe517      Fe  0.35263720  0.03786351  0.99127052     1.65800
Fe518      Fe  0.33921047  0.90655819  0.98957363     1.73200
Fe519      Fe  0.22992388  0.98515097  0.99568463     1.54400
O520        O  0.23493219  0.04593667  0.52507391    -0.78800
O521        O  0.29502523  0.88798267  0.95399088    -0.77100
O522        O  0.32140421  0.06243186  0.52926570    -0.81300
O523        O  0.30260699  0.08284891  0.96550950    -0.76200
O524        O  0.23549885  0.92956956  0.52971847    -0.77900
O525        O  0.39703168  0.92881851  0.96002770    -0.80700
C526        C  0.25870945  0.07603450  0.95271197     1.00100
C527        C  0.27396525  0.06869774  0.53809036     1.07500
O528        O  0.30678235  0.97667770  0.99248429    -1.09700
O529        O  0.39019623  0.93143814  0.51323944    -0.72100
O530        O  0.41125049  0.01098015  0.49942067    -0.75600
O531        O  0.22760963  0.03918849  0.95995545    -0.76300
C532        C  0.41335342  0.97375785  0.51770429     0.99000
O533        O  0.38595148  0.01368914  0.95210100    -0.74200
O534        O  0.29719753  0.87413082  0.51193739    -0.79400
C535        C  0.24618033  0.89316395  0.94910294     1.01600
C536        C  0.26258139  0.88704297  0.53141248     1.07500
O537        O  0.21602360  0.92454679  0.96390867    -0.75100
C538        C  0.40462435  0.96956554  0.94484491     1.05800
Fe539      Fe  0.44278428  0.17159845  0.73885287     1.65800
Fe540      Fe  0.57523596  0.17621390  0.73178831     1.73200
Fe541      Fe  0.50317741  0.28618051  0.74421324     1.54400
O542        O  0.44894886  0.29031769  0.70775257    -0.78800
O543        O  0.61458864  0.21803454  0.76453474    -0.77100
O544        O  0.39440196  0.23200113  0.72501374    -0.81300
O545        O  0.42823499  0.19128499  0.78183646    -0.76200
O546        O  0.56285960  0.30286477  0.71268201    -0.77900
O547        O  0.55967445  0.12377477  0.76402555    -0.80700
C548        C  0.42131082  0.23791781  0.79044246     1.00100
C549        C  0.40667114  0.26398547  0.70507310     1.07500
O550        O  0.50807251  0.21156425  0.73904325    -1.09700
O551        O  0.54241853  0.13180721  0.69781571    -0.72100
O552        O  0.45667485  0.15450467  0.69584718    -0.75600
O553        O  0.44175451  0.27710179  0.77686587    -0.76300
C554        C  0.49828487  0.13562926  0.68412888     0.99000
O555        O  0.47767786  0.10244491  0.75267466    -0.74200
O556        O  0.59712100  0.22577830  0.69937458    -0.79400
C557        C  0.60280824  0.25513804  0.78226202     1.01600
C558        C  0.59267083  0.27434079  0.69626325     1.07500
O559        O  0.56049415  0.28327343  0.77915338    -0.75100
C560        C  0.51984679  0.09531013  0.76723575     1.05800
C561        C  0.43652390  0.96600004  0.65149262     0.89400
C562        C  0.40686010  0.95044391  0.62350436    -0.50900
C563        C  0.41755439  0.98252195  0.60023888     0.12300
C564        C  0.45424718  0.02786673  0.60745890     0.23200
C565        C  0.49533279  0.96734136  0.64189709    -0.51600
C566        C  0.50436028  0.00003076  0.61873177     0.12400
C567        C  0.41953965  0.02229637  0.65732501    -0.51100
C568        C  0.43050025  0.05510590  0.63448303     0.13000
H569        H  0.38351485  0.91535716  0.62151461     0.17500
H570        H  0.45915136  0.05542733  0.58876021     0.03200
H571        H  0.52617612  0.94266635  0.65150807     0.17800
H572        H  0.40793061  0.03628377  0.67924421     0.17600
C573        C  0.55229135  0.02406184  0.83869676     0.89400
C574        C  0.49892180  0.03251371  0.85518133    -0.50900
C575        C  0.49381985  0.00189690  0.87978023     0.12300
C576        C  0.54240413  0.96711834  0.88575311     0.23200
C577        C  0.59455498  0.03449330  0.86191899    -0.51600
C578        C  0.58829654  0.00562308  0.88689255     0.12400
C579        C  0.55657242  0.96578480  0.83260431    -0.51100
C580        C  0.54935356  0.93588549  0.85737321     0.13000
H581        H  0.46861191  0.06041454  0.84823743     0.17500
H582        H  0.54104007  0.94178504  0.90571077     0.03200
H583        H  0.62231779  0.06640509  0.86041592     0.17800
H584        H  0.55707274  0.94977855  0.81023781     0.17600
Fe585      Fe  0.83804808  0.59187821  0.74922553     1.65800
Fe586      Fe  0.84554942  0.46134785  0.74706937     1.73200
Fe587      Fe  0.72649103  0.52231571  0.75112606     1.54400
O588        O  0.72608458  0.58370605  0.78409192    -0.78800
O589        O  0.80564340  0.43337813  0.71172953    -0.77100
O590        O  0.81050583  0.60857725  0.79104194    -0.81300
O591        O  0.77579297  0.63451068  0.73239045    -0.76200
O592        O  0.72726715  0.46635616  0.78600282    -0.77900
O593        O  0.89485035  0.49675175  0.71698230    -0.80700
C594        C  0.74268754  0.62014182  0.71336839     1.00100
C595        C  0.76163911  0.60998776  0.79814813     1.07500
O596        O  0.80259473  0.52446476  0.74994973    -1.09700
O597        O  0.88842299  0.48444299  0.78228710    -0.72100
O598        O  0.90865570  0.56310163  0.76625912    -0.75600
O599        O  0.72093276  0.57577870  0.71531603    -0.76300
C600        C  0.91596088  0.52495612  0.78357358     0.99000
O601        O  0.86110450  0.57529527  0.70674946    -0.74200
O602        O  0.80049391  0.41925184  0.77650231    -0.79400
C603        C  0.75760198  0.43465161  0.70429741     1.01600
C604        C  0.75816600  0.42722518  0.79104648     1.07500
O605        O  0.72248620  0.46228044  0.71807405    -0.75100
C606        C  0.88273987  0.53279934  0.69866721     1.05800
Fe607      Fe  0.89665020  0.69024565  0.50991188     1.65800
Fe608      Fe  0.02477736  0.64890522  0.98935785     1.73200
Fe609      Fe  0.98806952  0.77485918  0.99978780     1.54400
O610        O  0.92365895  0.79558961  0.97158851    -0.78800
O611        O  0.08175383  0.70522332  0.52673392    -0.77100
O612        O  0.87086552  0.72590800  0.97022198    -0.81300
O613        O  0.88890551  0.73085912  0.54767216    -0.76200
O614        O  0.03582647  0.77221579  0.96110976    -0.77900
O615        O  0.00310450  0.63525995  0.54434344    -0.80700
C616        C  0.89881186  0.77785718  0.55289193     1.00100
C617        C  0.88406968  0.77056496  0.96122465     1.07500
O618        O  0.97031327  0.70146984  0.99811093    -1.09700
O619        O  0.98430904  0.63370253  0.95066757    -0.72100
O620        O  0.90622360  0.62088985  0.97135714    -0.75600
O621        O  0.92851364  0.80570500  0.53596782    -0.76300
C622        C  0.93504159  0.62515754  0.94859233     0.99000
O623        O  0.91695299  0.62698392  0.53582220    -0.74200
O624        O  0.07370442  0.69414635  0.96467716    -0.79400
C625        C  0.07996795  0.74793680  0.54076762     1.01600
C626        C  0.07013812  0.73833682  0.95279432     1.07500
O627        O  0.04340438  0.78206216  0.53630264    -0.75100
C628        C  0.95866626  0.61590616  0.55013132     1.05800
Fe629      Fe  0.96549065  0.33827621  0.00533390     1.65800
Fe630      Fe  0.09482022  0.30926446  0.00096498     1.73200
Fe631      Fe  0.00563806  0.21387716  0.99724223     1.54400
O632        O  0.94164312  0.20824737  0.53197106    -0.78800
O633        O  0.10118796  0.28770804  0.95774731    -0.77100
O634        O  0.93383817  0.29468253  0.53686188    -0.81300
O635        O  0.91713688  0.30660655  0.97251942    -0.76200
O636        O  0.05237553  0.17891306  0.53470607    -0.77900
O637        O  0.07989767  0.38616740  0.98919657    -0.80700
C638        C  0.91750355  0.26462864  0.95736759     1.00100
C639        C  0.92231797  0.24912880  0.54475021     1.07500
O640        O  0.02078358  0.28692248  0.00051924    -1.09700
O641        O  0.09487514  0.30043987  0.54361106    -0.72100
O642        O  0.02615455  0.35446803  0.53552902    -0.75600
O643        O  0.94983650  0.22679008  0.96275926    -0.76300
C644        C  0.05895967  0.33109524  0.55289570     0.99000
O645        O  0.99783062  0.38109747  0.97295298    -0.74200
O646        O  0.12147853  0.20638956  0.51160972    -0.79400
C647        C  0.09516443  0.24100000  0.94909438     1.01600
C648        C  0.10145781  0.18911592  0.53496014     1.07500
O649        O  0.06637815  0.20770627  0.96329048    -0.75100
C650        C  0.04242805  0.40238549  0.97305664     1.05800
Fe651      Fe  0.14805611  0.54748908  0.75195265     1.65800
Fe652      Fe  0.15468475  0.41667927  0.75201844     1.73200
Fe653      Fe  0.26628118  0.48491761  0.74568087     1.54400
O654        O  0.26298477  0.54015983  0.71038425    -0.78800
O655        O  0.21738216  0.37386195  0.76818790    -0.77100
O656        O  0.19166719  0.58890863  0.72139042    -0.81300
O657        O  0.19009914  0.57520056  0.78638529    -0.76200
O658        O  0.26319309  0.42254350  0.71300587    -0.77900
O659        O  0.13564708  0.43651720  0.79459825    -0.80700
C660        C  0.23835993  0.57252026  0.79326046     1.00100
C661        C  0.23248338  0.57974880  0.70574075     1.07500
O662        O  0.19051590  0.48362325  0.74902387    -1.09700
O663        O  0.08379128  0.44672159  0.73648953    -0.72100
O664        O  0.10407494  0.52308655  0.71738272    -0.75600
O665        O  0.27260901  0.54503090  0.77865720    -0.76300
C666        C  0.07864452  0.48121737  0.71669348     0.99000
O667        O  0.10011215  0.51383353  0.78348997    -0.74200
O668        O  0.17840431  0.39648308  0.70979287    -0.79400
C669        C  0.25315749  0.38877813  0.78545963     1.01600
C670        C  0.22626872  0.39522433  0.70069170     1.07500
O671        O  0.27528816  0.43255270  0.78174193    -0.75100
C672        C  0.11437225  0.47939534  0.80231254     1.05800
C673        C  0.99801198  0.40578580  0.60749197     0.89400
C674        C  0.03768279  0.42394974  0.63076902    -0.50900
C675        C  0.02917822  0.47419413  0.63930497     0.12300
C676        C  0.98246041  0.50123669  0.62444017     0.23200
C677        C  0.94361679  0.41494763  0.62204726    -0.51600
C678        C  0.93583501  0.46534297  0.63144654     0.12400
C679        C  0.00069639  0.44567179  0.58228110    -0.51100
C680        C  0.99258494  0.49501045  0.59144202     0.13000
H681        H  0.06729283  0.39862836  0.64105817     0.17500
H682        H  0.97829091  0.54254355  0.63129166     0.03200
H683        H  0.91715552  0.38347497  0.62773428     0.17800
H684        H  0.00818030  0.43650642  0.55918201     0.17600
C685        C  0.02030511  0.48578009  0.90537650     0.89400
C686        C  0.99096900  0.46763523  0.87741858    -0.50900
C687        C  0.98467892  0.50542059  0.85669070     0.12300
C688        C  0.00849467  0.55765155  0.86572712     0.23200
C689        C  0.07270517  0.50769583  0.89455391    -0.51600
C690        C  0.06660575  0.54310695  0.87206888     0.12400
C691        C  0.98799170  0.53237260  0.91636998    -0.51100
C692        C  0.98091831  0.57019106  0.89521083     0.13000
H693        H  0.97584138  0.42852191  0.87432976     0.17500
H694        H  0.00421727  0.59007104  0.84957480     0.03200
H695        H  0.11028793  0.48806441  0.89905608     0.17800
H696        H  0.96584242  0.53071892  0.93700769     0.17600
C697        C  0.20953789  0.21682856  0.60123793     0.05200
C698        C  0.25700751  0.18675357  0.60099979     0.05100
C699        C  0.29948110  0.20179916  0.61979759    -0.15400
C700        C  0.29574840  0.24627753  0.63870716     0.05200
C701        C  0.24851094  0.27685101  0.63857637     0.05100
C702        C  0.20599899  0.26167125  0.61982726    -0.15400
H703        H  0.16977676  0.28487255  0.61975959     0.07200
H704        H  0.33564063  0.17851835  0.61983658     0.07200
C705        C  0.09937419  0.53623594  0.84530003    -0.13600
C706        C  0.10373470  0.48798823  0.83366047    -0.28700
H707        H  0.10622664  0.57018755  0.83143964     0.15500
H708        H  0.09560650  0.45367000  0.84700434     0.16000
C709        C  0.04539451  0.47019231  0.69147728    -0.13600
C710        C  0.05281813  0.49523833  0.66587666    -0.28700
H711        H  0.02021561  0.43614280  0.69240852     0.15500
H712        H  0.07750302  0.52943021  0.66411021     0.16000
C713        C  0.23834531  0.35822422  0.67656168    -0.10400
C714        C  0.24289111  0.32265604  0.65842497    -0.12000
C715        C  0.05673057  0.34312477  0.58435246    -0.13600
C716        C  0.00877969  0.35223869  0.59623536    -0.28700
H717        H  0.09191360  0.36071705  0.59365298     0.15500
H718        H  0.97485206  0.33340537  0.58623187     0.16000
C719        C  0.05003308  0.44545806  0.95268120    -0.13600
C720        C  0.02482992  0.44228495  0.92676837    -0.28700
H721        H  0.07367796  0.47889027  0.95867713     0.15500
H722        H  0.00460360  0.40635223  0.92114954     0.16000
C723        C  0.13311656  0.19169470  0.56217862    -0.10400
C724        C  0.16539321  0.20270772  0.58142526    -0.12000
C725        C  0.95701377  0.57562626  0.57234877    -0.13600
C726        C  0.99409265  0.53837127  0.57109817    -0.28700
H727        H  0.92371015  0.57347559  0.58761012     0.15500
H728        H  0.02362588  0.53771341  0.55345625     0.16000
C729        C  0.93361990  0.60486010  0.89496635    -0.13600
C730        C  0.90963114  0.62306409  0.91935450    -0.28700
H731        H  0.91417857  0.61143850  0.87372369     0.15500
H732        H  0.87077341  0.64138917  0.91708575     0.16000
C733        C  0.95576946  0.52910096  0.80662718    -0.13600
C734        C  0.95525844  0.49594659  0.82946728    -0.28700
H735        H  0.98188333  0.56227728  0.80605245     0.15500
H736        H  0.92959443  0.46221514  0.82918281     0.16000
C737        C  0.89649870  0.52561276  0.66756743    -0.13600
C738        C  0.89983714  0.47735882  0.65617402    -0.28700
H739        H  0.90642471  0.55983944  0.65469306     0.15500
H740        H  0.88442970  0.44459323  0.66869355     0.16000
C741        C  0.55730014  0.05691450  0.81165750    -0.13600
C742        C  0.52138546  0.05471304  0.78983671    -0.28700
H743        H  0.58866384  0.08552214  0.81098942     0.15500
H744        H  0.48912870  0.02713388  0.79100383     0.16000
C745        C  0.49353981  0.11292280  0.65453760    -0.13600
C746        C  0.44524925  0.10799148  0.64238334    -0.28700
H747        H  0.52601818  0.08759003  0.64750481     0.15500
H748        H  0.41272914  0.13301147  0.64978477     0.16000
C749        C  0.37202430  0.26668525  0.67893382    -0.10400
C750        C  0.33922255  0.25879346  0.65940281    -0.12000
C751        C  0.40413736  0.96839945  0.57000348    -0.13600
C752        C  0.43427375  0.98270314  0.54690699    -0.28700
H753        H  0.36867255  0.94548303  0.56667847     0.15500
H754        H  0.46955467  0.00589374  0.54928317     0.16000
C755        C  0.43840761  0.96481523  0.91856669    -0.13600
C756        C  0.44874509  0.00507571  0.90052119    -0.28700
H757        H  0.45735832  0.92711970  0.91487685     0.15500
H758        H  0.42720142  0.04185055  0.90268983     0.16000
C759        C  0.26234315  0.14128167  0.58088491    -0.10400
C760        C  0.26510196  0.10609445  0.56242300    -0.12000
C761        C  0.55415373  0.00016157  0.60186373    -0.13600
C762        C  0.56422269  0.03998083  0.58361322    -0.28700
H763        H  0.57725799  0.96417626  0.60068841     0.15500
H764        H  0.54279386  0.07671178  0.58603431     0.16000
C765        C  0.60892644  0.02487242  0.91487336    -0.13600
C766        C  0.57780660  0.02669240  0.93892309    -0.28700
H767        H  0.64817992  0.04189561  0.91513989     0.15500
H768        H  0.53870524  0.00977659  0.93937032     0.16000
C769        C  0.52409200  0.88537231  0.85414354    -0.13600
C770        C  0.47716309  0.88614750  0.84000022    -0.28700
H771        H  0.55176354  0.85329721  0.85008838     0.15500
H772        H  0.44842625  0.91690509  0.84495951     0.16000
C773        C  0.45571757  0.94150300  0.70254500    -0.13600
C774        C  0.42850929  0.93200122  0.67762465    -0.28700
H775        H  0.48200266  0.97464633  0.70391423     0.15500
H776        H  0.40395976  0.89771965  0.67546378     0.16000
C777        C  0.74514233  0.40144031  0.67924645    -0.10400
C778        C  0.74734215  0.36869129  0.65966859    -0.12000
C779        C  0.66123356  0.29745079  0.65541847    -0.10400
C780        C  0.62580997  0.29568388  0.67347730    -0.12000
C781        C  0.88426259  0.24673055  0.56890990    -0.10400
C782        C  0.84980936  0.25633781  0.58717152    -0.12000
C783        C  0.76126703  0.15056181  0.56855487    -0.10400
C784        C  0.76336550  0.18618360  0.58606916    -0.12000
C785        C  0.64665056  0.76467553  0.66564677    -0.10400
C786        C  0.60971466  0.76117749  0.68290761    -0.12000
C787        C  0.73420392  0.69115945  0.67078694    -0.10400
C788        C  0.73264093  0.65602454  0.68897793    -0.12000
C789        C  0.74951504  0.86715470  0.59166559    -0.10400
C790        C  0.75042684  0.89895497  0.57163422    -0.12000
C791        C  0.87112778  0.79774834  0.57873163    -0.10400
C792        C  0.83780969  0.79708806  0.59828163    -0.12000
C793        C  0.24266480  0.61677594  0.68168629    -0.10400
C794        C  0.24452126  0.65138934  0.66298036    -0.12000
C795        C  0.36191528  0.72591426  0.68437744    -0.10400
C796        C  0.33081915  0.72573278  0.66365422    -0.12000
C797        C  0.15811421  0.75253825  0.58052836    -0.10400
C798        C  0.12140813  0.75546509  0.56289972    -0.12000
C799        C  0.25126430  0.81923610  0.57646659    -0.10400
C800        C  0.25469315  0.85135079  0.55643992    -0.12000
C801        C  0.33317351  0.70687449  0.84252511    -0.10400
C802        C  0.36714302  0.70442905  0.82347660    -0.11200
C803        C  0.24912698  0.63513441  0.83910631    -0.10400
C804        C  0.25184742  0.60367429  0.81890946    -0.12000
C805        C  0.22576690  0.82116420  0.90974431    -0.10400
C806        C  0.22660185  0.85823555  0.92656330    -0.12000
C807        C  0.10757763  0.74770127  0.92895885    -0.10400
C808        C  0.14357336  0.74390018  0.91102534    -0.12000
C809        C  0.26530923  0.32052433  0.82914555    -0.10400
C810        C  0.26574043  0.35438579  0.81017214    -0.12000
C811        C  0.34919920  0.24298934  0.83309561    -0.10400
C812        C  0.38495926  0.24522573  0.81506010    -0.12000
C813        C  0.12691635  0.22596058  0.92360118    -0.10400
C814        C  0.16163688  0.22385064  0.90489405    -0.12000
C815        C  0.24597169  0.14567757  0.90931282    -0.10400
C816        C  0.24632091  0.11208187  0.92854384    -0.12000
C817        C  0.67445729  0.26432079  0.82631684    -0.10400
C818        C  0.63993889  0.26355897  0.80703623    -0.12000
C819        C  0.74685362  0.35282059  0.83181758    -0.10400
C820        C  0.74686788  0.38911284  0.81422249    -0.12000
C821        C  0.77620083  0.14111081  0.92881165    -0.10400
C822        C  0.77480635  0.17305698  0.90862198    -0.12000
C823        C  0.84528628  0.26112755  0.91347279    -0.10400
C824        C  0.87909476  0.26082818  0.93301179    -0.12000
C825        C  0.74077058  0.68188677  0.83963552    -0.10400
C826        C  0.74675934  0.64637038  0.82179163    -0.12000
C827        C  0.64764862  0.74944661  0.83772716    -0.10400
C828        C  0.61589895  0.74223026  0.81784923    -0.12000
C829        C  0.85158260  0.79112632  0.93753529    -0.10400
C830        C  0.81814379  0.79289630  0.91823947    -0.12000
C831        C  0.72557276  0.86192971  0.91771686    -0.10400
C832        C  0.72398544  0.89706177  0.93620358    -0.12000
loop_ 
_geom_bond_atom_site_label_1 
_geom_bond_atom_site_label_2 
_geom_bond_distance 
_geom_bond_site_symmetry_2 
_ccdc_geom_bond_type 
C1            C2   1.418       .  A
C1            C6   1.426       .  A
C1          C415   1.473       .  S
C2            C3   1.415       .  A
C2          C414   1.475       .  S
C3            C4   1.416       .  A
C3            H8   1.084       .  S
C4            C5   1.413       .  A
C4          C409   1.464       .  S
C5            C6   1.424       .  A
C5          C411   1.480       .  S
C6            H7   1.084       .  S
C9           C10   1.416       .  A
C9           C14   1.420       .  A
C9          C407   1.476       .  S
C10          C11   1.417       .  A
C10         C406   1.469       .  S
C11          C12   1.417       .  A
C11          H16   1.085       .  S
C12          C13   1.416       .  A
C12         C401   1.472       .  S
C13          C14   1.421       .  A
C13         C403   1.471       .  S
C14          H15   1.084       .  S
C17          C18   1.410       .  A
C17          C22   1.418       .  A
C17         C399   1.467       .  S
C18          C19   1.414       .  A
C18         C398   1.464       .  S
C19          C20   1.417       .  A
C19          H24   1.085       .  S
C20          C21   1.416       .  A
C20         C393   1.466       .  S
C21          C22   1.419       .  A
C21         C395   1.472       .  S
C22          H23   1.084       .  S
C25          C26   1.414       .  A
C25          C30   1.415       .  A
C25         C389   1.463       .  S
C26          C27   1.424       .  A
C26         C392   1.477       .  S
C27          C28   1.424       .  A
C27          H32   1.083       .  S
C28          C29   1.410       .  A
C28         C387   1.468       .  S
C29          C30   1.412       .  A
C29         C385   1.470       .  S
C30          H31   1.084       .  S
C33          C34   1.423       .  A
C33          C38   1.421       .  A
C33         C383   1.476       .  S
C34          C35   1.417       .  A
C34         C381   1.469       .  S
C35          C36   1.413       .  A
C35          H40   1.085       .  S
C36          C37   1.409       .  A
C36         C378   1.465       .  S
C37          C38   1.418       .  A
C37         C380   1.468       .  S
C38          H39   1.084       .  S
C41          C42   1.412       .  A
C41          C46   1.421       .  A
C41         C373   1.472       .  S
C42          C43   1.412       .  A
C42         C376   1.459       .  S
C43          C44   1.411       .  A
C43          H48   1.084       .  S
C44          C45   1.410       .  A
C44         C371   1.461       .  S
C45          C46   1.420       .  A
C45         C369   1.467       .  S
C46          H47   1.084       .  S
C49          C50   1.406       .  A
C49          C54   1.419       .  A
C49         C368   1.464       .  S
C50          C51   1.416       .  A
C50         C366   1.467       .  S
C51          C52   1.419       .  A
C51          H56   1.084       .  S
C52          C53   1.412       .  A
C52         C362   1.462       .  S
C53          C54   1.420       .  A
C53         C363   1.474       .  S
C54          H55   1.084       .  S
Fe57         O73   2.027       .  S
Fe57         O63   2.070       .  S
Fe57         O70   2.085       .  S
Fe57         O62   2.016       .  S
Fe57         O68   1.943       .  S
Fe58         O61   2.016       .  S
Fe58         O65   2.051       .  S
Fe58         O69   1.980       .  S
Fe58         O74   2.069       .  S
Fe58         O68   1.936       .  S
Fe59         O77   2.172       .  S
Fe59         O64   2.132       .  S
Fe59         O71   2.114       .  S
Fe59         O60   2.153       .  S
Fe59         O68   1.913       .  S
O60          C67   1.286       .  A
O61          C75   1.261       .  A
O62          C67   1.256       .  A
O63          C66   1.272       .  A
O64          C76   1.278       .  A
O65          C78   1.265       .  A
C66         C379   1.456       .  S
C66          O71   1.284       .  A
C67         C386   1.453       .  S
O69          C72   1.260       .  A
O70          C72   1.275       .  A
C72         C354   1.452       .  S
O73          C78   1.254       .  A
O74          C76   1.263       .  A
C75         C370   1.452       .  S
C75          O77   1.294       .  A
C76         C412   1.470       .  S
C78         C357   1.451       .  S
Fe79         O92   2.024       .  S
Fe79         O84   2.062       .  S
Fe79        O511   2.073       .  S
Fe79        O501   2.018       .  S
Fe79         O90   1.956       .  S
Fe80         O91   2.047   1_565  S
Fe80         O96   2.063       .  S
Fe80        O499   2.044       .  S
Fe80        O503   2.043       .  S
Fe80         O90   1.957   1_565  S
Fe81         O86   2.149   1_545  S
Fe81         O82   2.117       .  S
Fe81        O515   2.114   1_545  S
Fe81        O509   2.127       .  S
Fe81         O90   1.928       .  S
O82          C89   1.279       .  A
O83        Fe496   2.043       .  S
O83          C97   1.256       .  A
O84          C89   1.265       .  A
O85        Fe495   2.007       .  S
O85          C88   1.260       .  A
O86          C98   1.291       .  A
O87        Fe496   2.045   1_545  S
O87         C100   1.270       .  A
C88         C367   1.445       .  S
C88          O93   1.292       .  A
C89         C405   1.458       .  S
O91          C94   1.255       .  A
O92          C94   1.259       .  A
O93        Fe497   2.155       .  S
C94         C350   1.438       .  S
O95        Fe495   2.051       .  S
O95         C100   1.265       .  A
O96          C98   1.274       .  A
C97         C374   1.460       .  S
C97          O99   1.277       .  A
C98         C416   1.464       .  S
O99        Fe497   2.131   1_565  S
C100        C346   1.457       .  S
Fe101       O117   2.026       .  S
Fe101       O107   2.056       .  S
Fe101       O530   2.063       .  S
Fe101       O522   2.052       .  S
Fe101       O112   1.953   1_545  S
Fe102       O105   2.019       .  S
Fe102       O109   2.089       .  S
Fe102       O529   2.003       .  S
Fe102       O534   2.100       .  S
Fe102       O112   1.943       .  S
Fe103       O121   2.144       .  S
Fe103       O115   2.118   1_565  S
Fe103       O524   2.108       .  S
Fe103       O520   2.169   1_565  S
Fe103       O112   1.922       .  S
O104       Fe519   2.154   1_544  S
O104        C111   1.289       .  A
O105        C119   1.259       .  A
O106       Fe517   2.061   1_554  S
O106        C111   1.268       .  A
O107        C110   1.260       .  A
O108       Fe519   2.129   1_554  S
O108        C120   1.281       .  A
O109        C122   1.280       .  A
C110        C400   1.454       .  S
C110        O115   1.276       .  A
C111        C344   1.473       .  S
O113       Fe518   2.014   1_554  S
O113        C116   1.257       .  A
O114       Fe517   2.071   1_554  S
O114        C116   1.273   1_545  A
C116        C336   1.456       .  S
O117        C122   1.262   1_545  A
O118       Fe518   2.063   1_554  S
O118        C120   1.265       .  A
C119        C390   1.448       .  S
C119        O121   1.284       .  A
C120        C384   1.466       .  S
C122        C339   1.459   1_565  S
Fe123       O139   2.072       .  S
Fe123       O129   2.027       .  S
Fe123       O136   2.011       .  S
Fe123       O128   2.054       .  S
Fe123       O134   1.959       .  S
Fe124       O127   2.064       .  S
Fe124       O131   2.005       .  S
Fe124       O135   2.068       .  S
Fe124       O140   2.003       .  S
Fe124       O134   1.933       .  S
Fe125       O143   2.132       .  S
Fe125       O130   2.160       .  S
Fe125       O137   2.185       .  S
Fe125       O126   2.134       .  S
Fe125       O134   1.920       .  S
O126        C133   1.275       .  A
O127        C141   1.270       .  A
O128        C133   1.255       .  A
O129        C132   1.269       .  A
O130        C142   1.287       .  A
O131        C144   1.255       .  A
C132        C396   1.460       .  S
C132        O137   1.300       .  A
C133        C333   1.464       .  S
O135        C138   1.276       .  A
O136        C138   1.265       .  A
C138        C329   1.450       .  S
O139        C144   1.261       .  A
O140        C142   1.252       .  A
C141        C402   1.462       .  S
C141        O143   1.287       .  A
C142        C364   1.455       .  S
C144        C326   1.453       .  S
C145        C146   1.532       .  S
C145        C151   1.525   1_565  S
C145        C149   1.533   1_565  S
C145        C358   1.484       .  S
C146        H153   1.084       .  S
C146        C147   1.372       .  D
C147        C148   1.522   1_565  S
C147        C335   1.463       .  S
C148        C152   1.517       .  S
C148        C150   1.540       .  S
C148        H154   1.108       .  S
C149        H155   1.087   1_545  S
C149        C150   1.359       .  D
C150        C345   1.464       .  S
C151        H156   1.088       .  S
C151        C152   1.357       .  D
C152        C330   1.449       .  S
C157        C158   1.547       .  S
C157        C163   1.520   1_545  S
C157        C161   1.518       .  S
C157        C325   1.481       .  S
C158        H165   1.085       .  S
C158        C159   1.366   1_545  D
C159        C160   1.517       .  S
C159        C340   1.464       .  S
C160        C164   1.519       .  S
C160        C162   1.537       .  S
C160        H166   1.112       .  S
C161        H167   1.087       .  S
C161        C162   1.358   1_545  D
C162        C349   1.451   1_565  S
C163        H168   1.088       .  S
C163        C164   1.366       .  D
C164        C353   1.457       .  S
Fe169       O185   2.035       .  S
Fe169       O175   2.047       .  S
Fe169       O182   2.058       .  S
Fe169       O174   2.042       .  S
Fe169       O180   1.967       .  S
Fe170       O173   2.033       .  S
Fe170       O177   2.063       .  S
Fe170       O181   2.017       .  S
Fe170       O186   2.061       .  S
Fe170       O180   1.956       .  S
Fe171       O189   2.134       .  S
Fe171       O176   2.119       .  S
Fe171       O183   2.107       .  S
Fe171       O172   2.138       .  S
Fe171       O180   1.951       .  S
O172        C179   1.286       .  A
O173        C187   1.262       .  A
O174        C179   1.266       .  A
O175        C178   1.260       .  A
O176        C188   1.278       .  A
O177        C190   1.269       .  A
C178        C372   1.448       .  S
C178        O183   1.275       .  A
C179        C410   1.452       .  S
O181        C184   1.261       .  A
O182        C184   1.263       .  A
C184        C317   1.450       .  S
O185        C190   1.262       .  A
O186        C188   1.264       .  A
C187        C361   1.450       .  S
C187        O189   1.284       .  A
C188        C404   1.461       .  S
C190        C321   1.458       .  S
Fe191       O207   2.035       .  S
Fe191       O197   2.022       .  S
Fe191       O620   2.046   1_554  S
Fe191       O612   2.027   1_554  S
Fe191       O618   1.965   1_554  S
Fe192       O203   2.063   1_455  S
Fe192       O208   2.047       .  S
Fe192       O611   2.064       .  S
Fe192       O615   2.016       .  S
Fe192       O202   1.937   1_455  S
Fe193       O198   2.157   1_655  S
Fe193       O194   2.126       .  S
Fe193       O627   2.119   1_655  S
Fe193       O621   2.161       .  S
Fe193       O202   1.930       .  S
O194        C201   1.280       .  A
O195       Fe608   2.086   1_554  S
O195        C209   1.283       .  A
O196       Fe607   2.062       .  S
O196        C201   1.263       .  A
O197        C200   1.257       .  A
O198        C210   1.290       .  A
O199       Fe608   2.065   1_654  S
O199        C212   1.264       .  A
C200        C375   1.443       .  S
C200        O205   1.277       .  A
C201        C413   1.463       .  S
O202       Fe607   1.966       .  S
O203        C206   1.271       .  A
O204       Fe607   2.016       .  S
O204        C206   1.258       .  A
O205       Fe609   2.119   1_554  S
C206        C314   1.432       .  S
O207        C212   1.260       .  A
O208        C210   1.266       .  A
C209        C382   1.462       .  S
C209        O211   1.287       .  A
C210        C391   1.466       .  S
O211       Fe609   2.125   1_454  S
C212        C309   1.441       .  S
Fe213       O229   2.019   1_655  S
Fe213       O219   2.078       .  S
Fe213       O642   2.073   1_655  S
Fe213       O634   2.025       .  S
Fe213       O224   1.905   1_655  S
Fe214       O217   2.008       .  S
Fe214       O221   2.062       .  S
Fe214       O641   2.020       .  S
Fe214       O646   2.037       .  S
Fe214       O224   1.970       .  S
Fe215       O233   2.181       .  S
Fe215       O227   2.125   1_455  S
Fe215       O636   2.139       .  S
Fe215       O632   2.142   1_455  S
Fe215       O224   1.915       .  S
O216       Fe631   2.143   1_654  S
O216        C223   1.285       .  A
O217        C231   1.268       .  A
O218       Fe629   2.011       .  S
O218        C223   1.254       .  A
O219        C222   1.272       .  A
O220       Fe631   2.117   1_554  S
O220        C232   1.269       .  A
O221        C234   1.257       .  A
C222        C408   1.467       .  S
C222        O227   1.284       .  A
C223        C365   1.449       .  S
O225       Fe630   2.024       .  S
O225        C228   1.266       .  A
O226       Fe629   2.077   1_455  S
O226        C228   1.280       .  A
C228        C299   1.444       .  S
O229        C234   1.261       .  A
O230       Fe630   2.046       .  S
O230        C232   1.252       .  A
C231        C397   1.446       .  S
C231        O233   1.302       .  A
C232        C307   1.451       .  S
C234        C303   1.447       .  S
Fe235       O251   2.011       .  S
Fe235       O241   2.033       .  S
Fe235       O248   2.030       .  S
Fe235       O240   2.015       .  S
Fe235       O246   1.967       .  S
Fe236       O239   2.065       .  S
Fe236       O243   2.085       .  S
Fe236       O247   2.058       .  S
Fe236       O252   2.071       .  S
Fe236       O246   1.927       .  S
Fe237       O255   2.124       .  S
Fe237       O242   2.118       .  S
Fe237       O249   2.133       .  S
Fe237       O238   2.173       .  S
Fe237       O246   1.913       .  S
O238        C245   1.299       .  A
O239        C253   1.271       .  A
O240        C245   1.268       .  A
O241        C244   1.249       .  A
O242        C254   1.282       .  A
O243        C256   1.280       .  A
C244        C388   1.457       .  S
C244        O249   1.270       .  A
C245        C377   1.449       .  S
O247        C250   1.264       .  A
O248        C250   1.248       .  A
C250        C293   1.450       .  S
O251        C256   1.268       .  A
O252        C254   1.270       .  A
C253        C394   1.457       .  S
C253        O255   1.284       .  A
C254        C297   1.461       .  S
C256        C290   1.441       .  S
C257        C258   1.524       .  S
C257        C263   1.525       .  S
C257        C261   1.540       .  S
C257        C300   1.492       .  S
C258        H265   1.087       .  S
C258        C259   1.370       .  D
C259        C260   1.542       .  S
C259        C294   1.468       .  S
C260        C264   1.517       .  S
C260        C262   1.539       .  S
C260        H266   1.106       .  S
C261        H267   1.087       .  S
C261        C262   1.361       .  D
C262        C322   1.470   1_455  S
C263        H268   1.085       .  S
C263        C264   1.355       .  D
C264        C310   1.465   1_455  S
C269        C270   1.532       .  S
C269        C275   1.523       .  S
C269        C273   1.525       .  S
C269        C304   1.479       .  S
C270        H277   1.086   1_455  S
C270        C271   1.358   1_455  D
C271        C272   1.533   1_655  S
C271        C318   1.456       .  S
C272        C276   1.514   1_455  S
C272        C274   1.535       .  S
C272        H278   1.109       .  S
C273        H279   1.087       .  S
C273        C274   1.366       .  D
C274        C289   1.456       .  S
C275        H280   1.087       .  S
C275        C276   1.361   1_455  D
C276        C313   1.453       .  S
C281        C282   1.415       .  A
C281        C286   1.417       .  A
C281        C308   1.464       .  S
C282        C283   1.424       .  A
C282        C343   1.483       .  S
C283        C284   1.426       .  A
C283        H288   1.084       .  S
C284        C285   1.415       .  A
C284        C334   1.475       .  S
C285        C286   1.415       .  A
C285        C298   1.471       .  S
C286        H287   1.085       .  S
C289        H291   1.085       .  S
C289        C290   1.340       .  D
C290        H292   1.085       .  S
C293        H295   1.082       .  S
C293        C294   1.340       .  D
C294        H296   1.089       .  S
C297        C298   1.222       .  T
C299        H301   1.087       .  S
C299        C300   1.335       .  D
C300        H302   1.088       .  S
C303        H305   1.086       .  S
C303        C304   1.333       .  D
C304        H306   1.089       .  S
C307        C308   1.217       .  T
C309        H311   1.085       .  S
C309        C310   1.334       .  D
C310        H312   1.088       .  S
C313        H315   1.088       .  S
C313        C314   1.331       .  D
C314        H316   1.087       .  S
C317        H319   1.082       .  S
C317        C318   1.336       .  D
C318        H320   1.086       .  S
C321        H323   1.085       .  S
C321        C322   1.338       .  D
C322        H324   1.090       .  S
C325        H327   1.087       .  S
C325        C326   1.341       .  D
C326        H328   1.087       .  S
C329        H331   1.087       .  S
C329        C330   1.334       .  D
C330        H332   1.087       .  S
C333        C334   1.225       .  T
C335        H337   1.088   1_565  S
C335        C336   1.329       .  D
C336        H338   1.085       .  S
C339        H341   1.086       .  S
C339        C340   1.330   1_545  D
C340        H342   1.087       .  S
C343        C344   1.229       .  T
C345        H347   1.088       .  S
C345        C346   1.332       .  D
C346        H348   1.086       .  S
C349        H351   1.089       .  S
C349        C350   1.338       .  D
C350        H352   1.084   1_545  S
C353        H355   1.087       .  S
C353        C354   1.351       .  D
C354        H356   1.085       .  S
C357        H359   1.087       .  S
C357        C358   1.335       .  D
C358        H360   1.088       .  S
C361        C362   1.216       .  T
C363        C364   1.223       .  T
C365        C366   1.218       .  T
C367        C368   1.217       .  T
C369        C370   1.219       .  T
C371        C372   1.215       .  T
C373        C374   1.223       .  T
C375        C376   1.214       .  T
C377        C378   1.217       .  T
C379        C380   1.220       .  T
C381        C382   1.222       .  T
C383        C384   1.226       .  T
C385        C386   1.220       .  T
C387        C388   1.221       .  T
C389        C390   1.216       .  T
C391        C392   1.226       .  T
C393        C394   1.219       .  T
C395        C396   1.223       .  T
C397        C398   1.217       .  T
C399        C400   1.219       .  T
C401        C402   1.223       .  T
C403        C404   1.222       .  T
C405        C406   1.221       .  T
C407        C408   1.225       .  T
C409        C410   1.218       .  T
C411        C412   1.228       .  T
C413        C414   1.224       .  T
C415        C416   1.223       .  T
C417        C418   1.413       .  A
C417        C422   1.419       .  A
C417        C831   1.478       .  S
C418        C419   1.414       .  A
C418        C830   1.455       .  S
C419        C420   1.410       .  A
C419        H424   1.085       .  S
C420        C421   1.413       .  A
C420        C825   1.472       .  S
C421        C422   1.423       .  A
C421        C827   1.463       .  S
C422        H423   1.084       .  S
C425        C426   1.415       .  A
C425        C430   1.417       .  A
C425        C823   1.477       .  S
C426        C427   1.425       .  A
C426        C822   1.474       .  S
C427        C428   1.424       .  A
C427        H432   1.084       .  S
C428        C429   1.419       .  A
C428        C817   1.484       .  S
C429        C430   1.420       .  A
C429        C819   1.470       .  S
C430        H431   1.084       .  S
C433        C434   1.413       .  A
C433        C438   1.416       .  A
C433        C815   1.469       .  S
C434        C435   1.415       .  A
C434        C814   1.460       .  S
C435        C436   1.413       .  A
C435        H440   1.084       .  S
C436        C437   1.411       .  A
C436        C809   1.465       .  S
C437        C438   1.416       .  A
C437        C811   1.461       .  S
C438        H439   1.084       .  S
C441        C442   1.411       .  A
C441        C446   1.415       .  A
C441        C805   1.462       .  S
C442        C443   1.418       .  A
C442        C808   1.464       .  S
C443        C444   1.416       .  A
C443        H448   1.084       .  S
C444        C445   1.405       .  A
C444        C803   1.463       .  S
C445        C446   1.413       .  A
C445        C801   1.459       .  S
C446        H447   1.084       .  S
C449        C450   1.417       .  A
C449        C454   1.418       .  A
C449        C799   1.474       .  S
C450        C451   1.420       .  A
C450        C797   1.470       .  S
C451        C452   1.418       .  A
C451        H456   1.084       .  S
C452        C453   1.415       .  A
C452        C794   1.475       .  S
C453        C454   1.419       .  A
C453        C796   1.466       .  S
C454        H455   1.084       .  S
C457        C458   1.408       .  A
C457        C462   1.414       .  A
C457        C789   1.462       .  S
C458        C459   1.417       .  A
C458        C792   1.464       .  S
C459        C460   1.417       .  A
C459        H464   1.084       .  S
C460        C461   1.412       .  A
C460        C787   1.466       .  S
C461        C462   1.414       .  A
C461        C785   1.464       .  S
C462        H463   1.084       .  S
C465        C466   1.406       .  A
C465        C470   1.406       .  A
C465        C784   1.451       .  S
C466        C467   1.420       .  A
C466        C782   1.466       .  S
C467        C468   1.421       .  A
C467        H472   1.083       .  S
C468        C469   1.407       .  A
C468        C778   1.465       .  S
C469        C470   1.406       .  A
C469        C779   1.452       .  S
C470        H471   1.085       .  S
Fe473       O489   2.006       .  S
Fe473       O479   2.068       .  S
Fe473       O486   2.086       .  S
Fe473       O478   1.997       .  S
Fe473       O484   1.946       .  S
Fe474       O477   2.035       .  S
Fe474       O481   2.062       .  S
Fe474       O485   2.006       .  S
Fe474       O490   2.055       .  S
Fe474       O484   1.946       .  S
Fe475       O493   2.156       .  S
Fe475       O480   2.111       .  S
Fe475       O487   2.114       .  S
Fe475       O476   2.133       .  S
Fe475       O484   1.931       .  S
O476        C483   1.281       .  A
O477        C491   1.269       .  A
O478        C483   1.252       .  A
O479        C482   1.271       .  A
O480        C492   1.271       .  A
O481        C494   1.260       .  A
C482        C795   1.455       .  S
C482        O487   1.282       .  A
C483        C802   1.438       .  S
O485        C488   1.266       .  A
O486        C488   1.275       .  A
C488        C770   1.462       .  S
O489        C494   1.255       .  A
O490        C492   1.258       .  A
C491        C786   1.452       .  S
C491        O493   1.292       .  A
C492        C828   1.452       .  S
C494        C773   1.442       .  S
Fe495       O508   2.018   1_554  S
Fe495       O500   2.034   1_554  S
Fe495       O506   1.969       .  S
Fe496       O507   2.053   1_564  S
Fe496       O512   2.073   1_554  S
Fe496       O506   1.949   1_565  S
Fe497       O502   2.156   1_544  S
Fe497       O498   2.140   1_554  S
Fe497       O506   1.917       .  S
O498        C505   1.282       .  A
O499        C513   1.258       .  A
O500        C505   1.258       .  A
O501        C504   1.263       .  A
O502        C514   1.295       .  A
O503        C516   1.269   1_565  A
C504        C783   1.435       .  S
C504        O509   1.284       .  A
C505        C821   1.459       .  S
O507        C510   1.256       .  A
O508        C510   1.258       .  A
C510        C766   1.435       .  S
O511        C516   1.272       .  A
O512        C514   1.280       .  A
C513        C790   1.448       .  S
C513        O515   1.274       .  A
C514        C832   1.469       .  S
C516        C762   1.458       .  S
Fe517       O533   2.044       .  S
Fe517       O523   2.057       .  S
Fe517       O528   1.964   1_545  S
Fe518       O521   2.013       .  S
Fe518       O525   2.060       .  S
Fe518       O528   1.970       .  S
Fe519       O537   2.145       .  S
Fe519       O531   2.122   1_565  S
Fe519       O528   1.955       .  S
O520        C527   1.293       .  A
O521        C535   1.258       .  A
O522        C527   1.270       .  A
O523        C526   1.264       .  A
O524        C536   1.281       .  A
O525        C538   1.265       .  A
C526        C816   1.458       .  S
C526        O531   1.279       .  A
C527        C760   1.470       .  S
O529        C532   1.256       .  A
O530        C532   1.261   1_545  A
C532        C752   1.436       .  S
O533        C538   1.263   1_545  A
O534        C536   1.277       .  A
C535        C806   1.445       .  S
C535        O537   1.286       .  A
C536        C800   1.466       .  S
C538        C755   1.461       .  S
Fe539       O555   2.065       .  S
Fe539       O545   2.030       .  S
Fe539       O552   2.013       .  S
Fe539       O544   2.056       .  S
Fe539       O550   1.954       .  S
Fe540       O543   2.083       .  S
Fe540       O547   2.020       .  S
Fe540       O551   2.085       .  S
Fe540       O556   2.016       .  S
Fe540       O550   1.939       .  S
Fe541       O559   2.138       .  S
Fe541       O546   2.117       .  S
Fe541       O553   2.150       .  S
Fe541       O542   2.139       .  S
Fe541       O550   1.930       .  S
O542        C549   1.277       .  A
O543        C557   1.274       .  A
O544        C549   1.257       .  A
O545        C548   1.267       .  A
O546        C558   1.277       .  A
O547        C560   1.259       .  A
C548        C812   1.448       .  S
C548        O553   1.290       .  A
C549        C749   1.467       .  S
O551        C554   1.276       .  A
O552        C554   1.265       .  A
C554        C745   1.459       .  S
O555        C560   1.261       .  A
O556        C558   1.257       .  A
C557        C818   1.475       .  S
C557        O559   1.288       .  A
C558        C780   1.436       .  S
C560        C742   1.455       .  S
C561        C562   1.521       .  S
C561        C567   1.523   1_565  S
C561        C565   1.547       .  S
C561        C774   1.479       .  S
C562        H569   1.087       .  S
C562        C563   1.360       .  D
C563        C564   1.532   1_565  S
C563        C751   1.449       .  S
C564        C568   1.521       .  S
C564        C566   1.531       .  S
C564        H570   1.107       .  S
C565        H571   1.086       .  S
C565        C566   1.359   1_565  D
C566        C761   1.468       .  S
C567        H572   1.088       .  S
C567        C568   1.359       .  D
C568        C746   1.456       .  S
C573        C574   1.550       .  S
C573        C579   1.522   1_545  S
C573        C577   1.520       .  S
C573        C741   1.486       .  S
C574        H581   1.086       .  S
C574        C575   1.364       .  D
C575        C576   1.530   1_545  S
C575        C756   1.472       .  S
C576        C580   1.516       .  S
C576        C578   1.534   1_565  S
C576        H582   1.109       .  S
C577        H583   1.087       .  S
C577        C578   1.356       .  D
C578        C765   1.452       .  S
C579        H584   1.087       .  S
C579        C580   1.366       .  D
C580        C769   1.460       .  S
Fe585       O601   2.040       .  S
Fe585       O591   2.047       .  S
Fe585       O598   2.067       .  S
Fe585       O590   2.048       .  S
Fe585       O596   1.959       .  S
Fe586       O589   2.020       .  S
Fe586       O593   2.058       .  S
Fe586       O597   2.013       .  S
Fe586       O602   2.060       .  S
Fe586       O596   1.940       .  S
Fe587       O605   2.144       .  S
Fe587       O592   2.126       .  S
Fe587       O599   2.119       .  S
Fe587       O588   2.163       .  S
Fe587       O596   1.924       .  S
O588        C595   1.295       .  A
O589        C603   1.258       .  A
O590        C595   1.274       .  A
O591        C594   1.256       .  A
O592        C604   1.283       .  A
O593        C606   1.272       .  A
C594        C788   1.452       .  S
C594        O599   1.274       .  A
C595        C826   1.460       .  S
O597        C600   1.260       .  A
O598        C600   1.262       .  A
C600        C733   1.450       .  S
O601        C606   1.266       .  A
O602        C604   1.267       .  A
C603        C777   1.450       .  S
C603        O605   1.286       .  A
C604        C820   1.460       .  S
C606        C737   1.452       .  S
Fe607       O623   2.057       .  S
Fe607       O613   2.001       .  S
Fe608       O619   2.059   1_455  S
Fe608       O624   2.036       .  S
Fe608       O618   1.952   1_455  S
Fe609       O614   2.117   1_655  S
Fe609       O610   2.125       .  S
Fe609       O618   1.943       .  S
O610        C617   1.283       .  A
O611        C625   1.265       .  A
O612        C617   1.264       .  A
O613        C616   1.257       .  A
O614        C626   1.274       .  A
O615        C628   1.260   1_455  A
C616        C791   1.445       .  S
C616        O621   1.291       .  A
C617        C829   1.440       .  S
O619        C622   1.270       .  A
O620        C622   1.261       .  A
C622        C730   1.465       .  S
O623        C628   1.263       .  A
O624        C626   1.255       .  A
C625        C798   1.459       .  S
C625        O627   1.279       .  A
C626        C807   1.451       .  S
C628        C725   1.438       .  S
Fe629       O645   2.005   1_554  S
Fe629       O635   2.088   1_554  S
Fe629       O640   1.918   1_655  S
Fe630       O633   2.027   1_554  S
Fe630       O637   2.072   1_554  S
Fe630       O640   1.963       .  S
Fe631       O649   2.168       .  S
Fe631       O643   2.119   1_455  S
Fe631       O640   1.923   1_556  S
O632        C639   1.286       .  A
O633        C647   1.271       .  A
O634        C639   1.259       .  A
O635        C638   1.274       .  A
O636        C648   1.270       .  A
O637        C650   1.259       .  A
C638        C824   1.468       .  S
C638        O643   1.282       .  A
C639        C781   1.452       .  S
O641        C644   1.263       .  A
O642        C644   1.281       .  A
C644        C715   1.449       .  S
O645        C650   1.258   1_655  A
O646        C648   1.249       .  A
C647        C813   1.448       .  S
C647        O649   1.297       .  A
C648        C723   1.465       .  S
C650        C719   1.450       .  S
Fe651       O667   2.062       .  S
Fe651       O657   2.014       .  S
Fe651       O664   2.016       .  S
Fe651       O656   2.064       .  S
Fe651       O662   1.949       .  S
Fe652       O655   2.048       .  S
Fe652       O659   2.037       .  S
Fe652       O663   2.061       .  S
Fe652       O668   2.055       .  S
Fe652       O662   1.957       .  S
Fe653       O671   2.116       .  S
Fe653       O658   2.175       .  S
Fe653       O665   2.147       .  S
Fe653       O654   2.129       .  S
Fe653       O662   1.919       .  S
O654        C661   1.283       .  A
O655        C669   1.256       .  A
O656        C661   1.267       .  A
O657        C660   1.258       .  A
O658        C670   1.299       .  A
O659        C672   1.266       .  A
C660        C804   1.447       .  S
C660        O665   1.288       .  A
C661        C793   1.465       .  S
O663        C666   1.261       .  A
O664        C666   1.259       .  A
C666        C709   1.442       .  S
O667        C672   1.272       .  A
O668        C670   1.276       .  A
C669        C810   1.452       .  S
C669        O671   1.272       .  A
C670        C713   1.471       .  S
C672        C706   1.451       .  S
C673        C674   1.527   1_655  S
C673        C679   1.529   1_655  S
C673        C677   1.536       .  S
C673        C716   1.485   1_655  S
C674        H681   1.087       .  S
C674        C675   1.359       .  D
C675        C676   1.516   1_455  S
C675        C710   1.444       .  S
C676        C680   1.514       .  S
C676        C678   1.537       .  S
C676        H682   1.107       .  S
C677        H683   1.086       .  S
C677        C678   1.372       .  D
C678        C738   1.466       .  S
C679        H684   1.081       .  S
C679        C680   1.344   1_455  D
C680        C726   1.441       .  S
C685        C686   1.536   1_455  S
C685        C691   1.520   1_455  S
C685        C689   1.524       .  S
C685        C720   1.476       .  S
C686        H693   1.088       .  S
C686        C687   1.353       .  D
C687        C688   1.531   1_655  S
C687        C734   1.455       .  S
C688        C692   1.530   1_455  S
C688        C690   1.536       .  S
C688        H694   1.108       .  S
C689        H695   1.087       .  S
C689        C690   1.367       .  D
C690        C705   1.470       .  S
C691        H696   1.085       .  S
C691        C692   1.369       .  D
C692        C729   1.479       .  S
C697        C698   1.416       .  A
C697        C702   1.424       .  A
C697        C724   1.477       .  S
C698        C699   1.424       .  A
C698        C759   1.481       .  S
C699        C700   1.425       .  A
C699        H704   1.084       .  S
C700        C701   1.418       .  A
C700        C750   1.478       .  S
C701        C702   1.424       .  A
C701        C714   1.481       .  S
C702        H703   1.084       .  S
C705        H707   1.087       .  S
C705        C706   1.347       .  D
C706        H708   1.087       .  S
C709        H711   1.088       .  S
C709        C710   1.333       .  D
C710        H712   1.086       .  S
C713        C714   1.228       .  T
C715        H717   1.086       .  S
C715        C716   1.341       .  D
C716        H718   1.087   1_455  S
C719        H721   1.086       .  S
C719        C720   1.331       .  D
C720        H722   1.090       .  S
C723        C724   1.225       .  T
C725        H727   1.087       .  S
C725        C726   1.329       .  D
C726        H728   1.089   1_655  S
C729        H731   1.087       .  S
C729        C730   1.334       .  D
C730        H732   1.087       .  S
C733        H735   1.084       .  S
C733        C734   1.334       .  D
C734        H736   1.088       .  S
C737        H739   1.084       .  S
C737        C738   1.341       .  D
C738        H740   1.088       .  S
C741        H743   1.088       .  S
C741        C742   1.338       .  D
C742        H744   1.088       .  S
C745        H747   1.086       .  S
C745        C746   1.344       .  D
C746        H748   1.087       .  S
C749        C750   1.227       .  T
C751        H753   1.088       .  S
C751        C752   1.342       .  D
C752        H754   1.083   1_565  S
C755        H757   1.085       .  S
C755        C756   1.342   1_565  D
C756        H758   1.086       .  S
C759        C760   1.228       .  T
C761        H763   1.086   1_545  S
C761        C762   1.337       .  D
C762        H764   1.085       .  S
C765        H767   1.089       .  S
C765        C766   1.337       .  D
C766        H768   1.084       .  S
C769        H771   1.087       .  S
C769        C770   1.345       .  D
C770        H772   1.087       .  S
C773        H775   1.088       .  S
C773        C774   1.339       .  D
C774        H776   1.087       .  S
C777        C778   1.218       .  T
C779        C780   1.209       .  T
C781        C782   1.219       .  T
C783        C784   1.208       .  T
C785        C786   1.217       .  T
C787        C788   1.218       .  T
C789        C790   1.216       .  T
C791        C792   1.217       .  T
C793        C794   1.224       .  T
C795        C796   1.219       .  T
C797        C798   1.222       .  T
C799        C800   1.224       .  T
C801        C802   1.213       .  T
C803        C804   1.216       .  T
C805        C806   1.216       .  T
C807        C808   1.218       .  T
C809        C810   1.218       .  T
C811        C812   1.215       .  T
C813        C814   1.215       .  T
C815        C816   1.221       .  T
C817        C818   1.230       .  T
C819        C820   1.222       .  T
C821        C822   1.223       .  T
C823        C824   1.225       .  T
C825        C826   1.222       .  T
C827        C828   1.217       .  T
C829        C830   1.212       .  T
C831        C832   1.226       .  T
