geometry optimzed in LAMMPS
_audit_creation_date              2020-11-30 
_audit_creation_method            'lammps2cif' 
_symmetry_space_group_name_H-M    'P1' 
_symmetry_Int_Tables_number       1 
_symmetry_cell_setting            triclinic 
loop_ 
_symmetry_equiv_pos_as_xyz 
  x,y,z 
_cell_length_a                    33.7882947 
_cell_length_b                    33.46516910213212 
_cell_length_c                    46.41119972919333 
_cell_angle_alpha                 90.31923352902358 
_cell_angle_beta                  89.50392681631276 
_cell_angle_gamma                 90.17532789720774 
loop_ 
_atom_site_label 
_atom_site_type_symbol 
_atom_site_fract_x 
_atom_site_fract_y 
_atom_site_fract_z 
_atom_site_charge 
C1          C  0.67384649  0.76600671  0.99363848     0.80700
N2          N  0.66252634  0.74637402  0.47419463    -0.77600
C3          C  0.64186215  0.71151189  0.47349053     0.83200
N4          N  0.63458228  0.69143859  0.49832177    -0.77500
C5          C  0.64012964  0.71540428  0.01900051     0.83300
N6          N  0.66114048  0.74996390  0.01888190    -0.79300
C7          C  0.20194339  0.86127935  0.99526831     0.80700
N8          N  0.21821779  0.84990621  0.47693173    -0.77600
C9          C  0.25341091  0.83041063  0.47581407     0.83200
N10         N  0.27280992  0.82223568  0.50054911    -0.77500
C11         C  0.25071923  0.82521490  0.02003413     0.83300
N12         N  0.21712584  0.84734688  0.02026443    -0.79300
C13         C  0.57761710  0.29221159  0.99460891     0.80700
N14         N  0.56250255  0.30633132  0.01990532    -0.77600
C15         C  0.52857697  0.32809448  0.02011875     0.83200
N16         N  0.50852282  0.33370561  0.49356813    -0.77500
C17         C  0.52816889  0.32538371  0.46860381     0.83300
N18         N  0.56297497  0.30510621  0.46932717    -0.79300
N19         N  0.90197589  0.01821316  0.99408635    -0.36100
N20         N  0.95103011  0.08996729  0.99843753    -0.56700
N21         N  0.87979156  0.13938524  0.99606415    -0.36100
N22         N  0.83064053  0.06762346  0.99481642    -0.56700
C23         C  0.93753173  0.00134754  0.99923724     0.27500
C24         C  0.87399067  0.98964840  0.99762631     0.27500
C25         C  0.90716826  0.16769380  0.00220818     0.27500
C26         C  0.84363027  0.15575539  0.00042930     0.27500
C27         C  0.98002273  0.06251039  0.99502441     0.36100
C28         C  0.96836405  0.12630339  0.99608591     0.36100
C29         C  0.81370652  0.03157625  0.99022288     0.36100
C30         C  0.80206209  0.09518868  0.99101009     0.36100
C31         C  0.93212004  0.96123767  0.00566859    -0.21400
C32         C  0.89205272  0.95388410  0.00470825    -0.21400
C33         C  0.88807926  0.20282089  0.01003794    -0.21400
C34         C  0.84811839  0.19530271  0.00893549    -0.21400
C35         C  0.01614315  0.08156260  0.99107108    -0.22500
C36         C  0.00876782  0.12189844  0.99172269    -0.22500
C37         C  0.77396564  0.03620929  0.98385298    -0.22500
C38         C  0.76658843  0.07648741  0.98434968    -0.22500
C39         C  0.97481219  0.02057028  0.99686689    -0.17800
C40         C  0.83284739  0.99440428  0.99335309    -0.17800
C41         C  0.80674739  0.13670956  0.99555155    -0.17800
C42         C  0.94876558  0.16341553  0.99948211    -0.17800
H43         H  0.95467825  0.93939080  0.01037640     0.15100
H44         H  0.87789816  0.92531663  0.00853065     0.15100
H45         H  0.90135994  0.23121749  0.01567582     0.15100
H46         H  0.82511188  0.21687431  0.01353415     0.15100
H47         H  0.04492129  0.06789910  0.98829227     0.13400
H48         H  0.03077372  0.14528033  0.98956457     0.13400
H49         H  0.75237857  0.01299189  0.97962346     0.13400
H50         H  0.73817246  0.09029556  0.98066642     0.13400
H51         H  0.89724147  0.04703175  0.98706031     0.26600
H52         H  0.88548289  0.11118758  0.98786421     0.26600
C53         C  0.10385466  0.39541629  0.99884495     0.80700
N54         N  0.11856312  0.40418600  0.47143930    -0.77600
C55         C  0.13829804  0.43946690  0.47154076     0.84000
N56         N  0.14740639  0.45735853  0.49693957    -0.77500
C57         C  0.13710457  0.44607017  0.02461087     0.83300
N58         N  0.11445190  0.41241118  0.02427356    -0.79300
C59         C  0.44208962  0.47218068  0.31187716     0.42900
N60         N  0.40979517  0.49890682  0.27753688     0.01800
C61         C  0.47030097  0.66024396  0.19483831    -0.06000
H62         H  0.46453879  0.68959749  0.30350237     0.07300
C63         C  0.31635265  0.66260811  0.30194269    -0.06400
Co64       Co  0.45891585  0.55882543  0.24569395     0.74200
N65         N  0.45619569  0.63660356  0.27747089    -0.25600
Co66       Co  0.41385356  0.65166363  0.24733819     0.74100
C67         C  0.34259014  0.69148787  0.31546330     0.43100
N68         N  0.30963804  0.56266949  0.28049335     0.01500
N69         N  0.37301645  0.66449172  0.27995310     0.01600
N70         N  0.49823518  0.59873192  0.19342502    -0.46400
H71         H  0.49787233  0.50923023  0.30176973     0.07300
N72         N  0.47282972  0.60094199  0.27750602     0.01800
N73         N  0.37079675  0.66494076  0.21670825     0.01600
C74         C  0.33802966  0.69023363  0.18215218     0.43200
N75         N  0.32630656  0.52706240  0.27908227    -0.25000
C76         C  0.46465601  0.50309980  0.19209335    -0.05900
N77         N  0.40681093  0.47209339  0.29840693    -0.46100
N78         N  0.37363394  0.69077143  0.19518624    -0.46400
C79         C  0.43832503  0.47519632  0.17762866     0.43000
N80         N  0.47147913  0.60165718  0.21436051     0.01800
N81         N  0.32462843  0.52840581  0.21677137    -0.25000
N82         N  0.44484895  0.51642858  0.27671436    -0.25500
N83         N  0.30764704  0.56388086  0.21732330     0.01500
H84         H  0.31658135  0.47622460  0.18988115     0.07400
H85         H  0.28238061  0.65373444  0.19331016     0.07400
N86         N  0.45460040  0.63716779  0.21544000    -0.25600
N87         N  0.33788333  0.64712028  0.28032777    -0.25200
N88         N  0.40798929  0.50029168  0.21406623     0.01800
C89         C  0.50000726  0.63249992  0.31226492     0.43200
C90         C  0.31113109  0.50408578  0.29996919    -0.06500
N91         N  0.33566900  0.64764901  0.21814076    -0.25200
H92         H  0.28594789  0.65514511  0.30709648     0.07400
N93         N  0.49925969  0.59708198  0.29823998    -0.46400
H94         H  0.31830220  0.47308718  0.30375136     0.07400
C95         C  0.28063427  0.53331301  0.18206429     0.43100
C96         C  0.46743753  0.50121651  0.29750416    -0.05900
Co97       Co  0.36694329  0.51274133  0.24685713     0.73800
N98         N  0.28349795  0.56570765  0.30183765    -0.46100
C99         C  0.49887044  0.63457049  0.18030663     0.43300
N100        N  0.40376162  0.47456101  0.19244117    -0.46100
Co101      Co  0.32189289  0.60557225  0.24917882     0.73900
C102        C  0.31278131  0.66211522  0.19734098    -0.06500
C103        C  0.47194621  0.65889771  0.29850594    -0.06000
N104        N  0.44320437  0.51749751  0.21416784    -0.25500
N105        N  0.37716276  0.69141909  0.30076112    -0.46300
H106        H  0.46322811  0.69126307  0.19105021     0.07300
C107        C  0.30906496  0.50675043  0.19533200    -0.06400
Cl108      Cl  0.39041448  0.58218767  0.24729384    -0.49400
C109        C  0.28324436  0.52992416  0.31505514     0.43100
H110        H  0.49492192  0.51109547  0.18692927     0.07300
N111        N  0.28098703  0.56816005  0.19678118    -0.46100
C112        C  0.17989936  0.50001121  0.08119516     0.30300
C113        C  0.19798114  0.53290462  0.09475977    -0.36100
C114        C  0.21694220  0.52488833  0.12090431     0.16200
C115        C  0.21844758  0.48699869  0.13249139     0.22100
C116        C  0.19944269  0.45452987  0.11941952    -0.34200
C117        C  0.18003130  0.46264005  0.09364398     0.16100
O118        O  0.16356529  0.49964573  0.05546859    -0.26200
C119        C  0.15234088  0.46177266  0.05188162     0.05900
C120        C  0.16156540  0.43751781  0.07501242    -0.31100
O121        O  0.24066312  0.48528715  0.15555278    -0.22900
C122        C  0.25299312  0.52263997  0.15921109    -0.02900
C123        C  0.23894312  0.54883632  0.13852783    -0.17400
H124        H  0.19842780  0.56228865  0.08513380     0.20600
H125        H  0.20084896  0.42470231  0.12824221     0.19000
H126        H  0.15776167  0.40549929  0.07686962     0.18900
H127        H  0.24562784  0.58029528  0.13606092     0.14800
C128        C  0.22104510  0.48186933  0.36419368     0.30300
C129        C  0.20166035  0.44922078  0.37669747    -0.36100
C130        C  0.18154944  0.45703863  0.40254740     0.16200
C131        C  0.18104445  0.49426569  0.41554494     0.22100
C132        C  0.19940330  0.52729115  0.40252921    -0.34200
C133        C  0.21913431  0.51957653  0.37638566     0.16100
O134        O  0.24376459  0.48064206  0.34106755    -0.26200
C135        C  0.25596102  0.51814813  0.33807113     0.05900
C136        C  0.24139626  0.54386834  0.35921158    -0.31100
O137        O  0.16444093  0.49357608  0.44134498    -0.22900
C138        C  0.15357397  0.45561797  0.44447610    -0.02900
C139        C  0.16302634  0.43165361  0.42091590    -0.17400
H140        H  0.20334656  0.41949787  0.36745792     0.20600
H141        H  0.19958125  0.55653941  0.41259751     0.19000
H142        H  0.24766364  0.57536658  0.36211211     0.18900
H143        H  0.15949306  0.39962217  0.41865536     0.14800
C144        C  0.04325294  0.31228990  0.01290630     0.30300
C145        C  0.02121272  0.28545565  0.02983357    -0.36100
C146        C  0.00385178  0.25325309  0.01507088     0.16200
C147        C  0.00781571  0.24788655  0.98566588     0.22100
C148        C  0.02957683  0.27486594  0.96873151    -0.34200
C149        C  0.04695823  0.30700594  0.98349007     0.16100
O150        O  0.06266085  0.34402175  0.02226213    -0.26200
C151        C  0.07890148  0.35930232  0.99850520     0.05900
C152        C  0.07000834  0.33756841  0.97373506    -0.31100
O153        O  0.98935036  0.21561944  0.97633393    -0.22900
C154        C  0.97325799  0.20018388  0.00004918    -0.02900
C155        C  0.98133972  0.22222071  0.02482102    -0.17400
H156        H  0.01807165  0.28925220  0.05291277     0.20600
H157        H  0.03291704  0.27093835  0.94567652     0.19000
H158        H  0.06727659  0.34634234  0.44999803     0.18900
H159        H  0.97178949  0.21624568  0.04669938     0.14800
C160        C  0.72544387  0.19788307  0.48734430     0.30300
C161        C  0.70092201  0.22064591  0.46963525    -0.36100
C162        C  0.66823146  0.23850973  0.48319296     0.16200
C163        C  0.66324204  0.23704865  0.00889483     0.22100
C164        C  0.69288892  0.22009333  0.02587410    -0.34200
C165        C  0.72151779  0.19754896  0.01103473     0.16100
O166        O  0.75725922  0.17821892  0.47897191    -0.26200
C167        C  0.77064590  0.16155740  0.99590552     0.05900
C168        C  0.75373229  0.17761058  0.02078502    -0.31100
O169        O  0.63350816  0.25920297  0.01822583    -0.22900
C170        C  0.61381024  0.26794953  0.99437788    -0.02900
C171        C  0.63869992  0.26127768  0.47223096    -0.17400
H172        H  0.70674248  0.22389163  0.44680005     0.20600
H173        H  0.69361243  0.22422649  0.04900885     0.19000
H174        H  0.76388616  0.17499920  0.04274564     0.18900
H175        H  0.63474338  0.27040843  0.45010716     0.14800
C176        C  0.47480980  0.37585382  0.07502814     0.30300
C177        C  0.44257381  0.39646670  0.08724716    -0.36100
C178        C  0.44898747  0.41375829  0.11442808     0.16200
C179        C  0.48489222  0.41138394  0.12829382     0.22100
C180        C  0.51670604  0.38991247  0.11643570    -0.34200
C181        C  0.51013247  0.37221559  0.08948867     0.16100
O182        O  0.47635729  0.35993947  0.04901099    -0.26200
C183        C  0.51289555  0.34537918  0.04699017     0.05900
C184        C  0.53518684  0.35185855  0.07162043    -0.31100
O185        O  0.48556753  0.43238672  0.15233328    -0.22900
C186        C  0.44943243  0.44775637  0.15426893    -0.02900
C187        C  0.42514463  0.43700739  0.13144638    -0.17400
H188        H  0.41487040  0.39977664  0.07598455     0.20600
H189        H  0.54500462  0.38815800  0.12709717     0.19000
H190        H  0.56596160  0.34462566  0.07517278     0.18900
H191        H  0.39511226  0.44647569  0.12736930     0.14800
C192        C  0.49006771  0.41231370  0.36217076     0.30300
C193        C  0.52270380  0.39542609  0.37593233    -0.36100
C194        C  0.51428130  0.37303818  0.40064466     0.16200
C195        C  0.47639223  0.36813964  0.41145019     0.22100
C196        C  0.44354059  0.38405117  0.39715566    -0.34200
C197        C  0.45193876  0.40604768  0.37213461     0.16100
O198        O  0.49149961  0.43625152  0.33976123    -0.26200
C199        C  0.45378492  0.44494406  0.33493262     0.05900
C200        C  0.42773077  0.42678946  0.35422562    -0.31100
O201        O  0.47591135  0.34965370  0.43651238    -0.22900
C202        C  0.51390423  0.34189795  0.44137678    -0.02900
C203        C  0.53902719  0.35541641  0.41966267    -0.17400
H204        H  0.55270558  0.40042707  0.36839445     0.20600
H205        H  0.41370002  0.38064989  0.40546531     0.19000
H206        H  0.39586592  0.42970065  0.35548279     0.18900
H207        H  0.57105390  0.35476565  0.41901591     0.14800
C208        C  0.11528142  0.91421645  0.48868522     0.30300
C209        C  0.08611102  0.93133130  0.47138855    -0.36100
C210        C  0.05763920  0.95457216  0.48577510     0.16200
C211        C  0.05772054  0.96057926  0.51523025     0.22100
C212        C  0.08394009  0.93773230  0.02679695    -0.34200
C213        C  0.11538350  0.91992585  0.51816349     0.16100
O214        O  0.14541114  0.89256158  0.47949610    -0.26200
C215        C  0.16585782  0.88588602  0.99585862     0.05900
C216        C  0.14525566  0.89604824  0.02094463    -0.31100
O217        O  0.02628379  0.97973328  0.01996086    -0.22900
C218        C  0.01054437  0.99508257  0.99630596    -0.02900
C219        C  0.02626981  0.97531697  0.47543091    -0.17400
H220        H  0.08590985  0.92719481  0.44824679     0.20600
H221        H  0.08120248  0.93593137  0.05000631     0.19000
H222        H  0.15191840  0.88792079  0.04291576     0.18900
H223        H  0.01667602  0.97774178  0.45332546     0.14800
C224        C  0.30261585  0.78095727  0.07640608     0.30300
C225        C  0.33567485  0.76655113  0.09124304    -0.36100
C226        C  0.32759484  0.74716641  0.11740119     0.16200
C227        C  0.28954763  0.74155626  0.12774649     0.22100
C228        C  0.25666506  0.75636213  0.11315729    -0.34200
C229        C  0.26480573  0.77655648  0.08747972     0.16100
O230        O  0.30297377  0.79915702  0.05125814    -0.26200
C231        C  0.26500317  0.80725375  0.04667076     0.05900
C232        C  0.23997052  0.79403419  0.06850838    -0.31100
O233        O  0.28849588  0.72116675  0.15186230    -0.22900
C234        C  0.32633715  0.71417221  0.15739492    -0.02900
C235        C  0.35216468  0.72978181  0.13683642    -0.17400
H236        H  0.36550306  0.77004498  0.08293152     0.20600
H237        H  0.22678353  0.75229174  0.12123301     0.19000
H238        H  0.20800057  0.79570437  0.06963315     0.18900
H239        H  0.38410075  0.72752616  0.13592249     0.14800
C240        C  0.29587375  0.75398763  0.36521632     0.30300
C241        C  0.26331113  0.77199763  0.37874874    -0.36100
C242        C  0.27070853  0.79017229  0.40535406     0.16200
C243        C  0.30756154  0.79031634  0.41798106     0.22100
C244        C  0.34054196  0.77345539  0.40393441    -0.34200
C245        C  0.33319767  0.75552524  0.37710230     0.16100
O246        O  0.29463106  0.73192912  0.34173593    -0.26200
C247        C  0.33169828  0.71975789  0.33818954     0.05900
C248        C  0.35726680  0.73384411  0.35925316    -0.31100
O249        O  0.30669282  0.80530288  0.44431462    -0.22900
C250        C  0.26897420  0.81549716  0.44824504    -0.02900
C251        C  0.24531496  0.80705318  0.42466069    -0.17400
H252        H  0.23389225  0.77037295  0.36976248     0.20600
H253        H  0.36945524  0.77282326  0.41377647     0.19000
H254        H  0.38827628  0.72691595  0.36199599     0.18900
H255        H  0.21361219  0.81060495  0.42274240     0.14800
C256        C  0.77140868  0.91208143  0.00713933     0.30300
C257        C  0.74893763  0.88563138  0.02396855    -0.36100
C258        C  0.72999610  0.85467662  0.00896975     0.16200
C259        C  0.73277215  0.85010071  0.97943698     0.22100
C260        C  0.75516511  0.87664931  0.96258583    -0.34200
C261        C  0.77428786  0.90750544  0.97759420     0.16100
O262        O  0.79177314  0.94297901  0.01669124    -0.26200
C263        C  0.80793803  0.95818415  0.99295194     0.05900
C264        C  0.79815162  0.93749657  0.96798857    -0.31100
O265        O  0.70427076  0.82088597  0.47682431    -0.22900
C266        C  0.69758589  0.80284937  0.99381380    -0.02900
C267        C  0.70708846  0.82406327  0.01868676    -0.17400
H268        H  0.74661638  0.88879658  0.04714330     0.20600
H269        H  0.73437893  0.88524476  0.44676774     0.19000
H270        H  0.78513563  0.95516161  0.45259028     0.18900
H271        H  0.69869435  0.81758034  0.04073758     0.14800
C272        C  0.60049013  0.69959791  0.08775339     0.30300
C273        C  0.58490937  0.71112434  0.11460860    -0.36100
C274        C  0.56363211  0.68167742  0.12952209     0.16200
C275        C  0.55897515  0.64318270  0.11916013     0.22100
C276        C  0.57459269  0.63166551  0.09232279    -0.34200
C277        C  0.59496690  0.66141059  0.07705785     0.16100
O278        O  0.61857180  0.72317283  0.06917538    -0.26200
C279        C  0.62427319  0.69989460  0.04620514     0.05900
C280        C  0.61021695  0.66117519  0.04985678    -0.31100
O281        O  0.53656487  0.62101179  0.13611517    -0.22900
C282        C  0.52626430  0.64588694  0.15725971    -0.02900
C283        C  0.54213151  0.68398442  0.15434401    -0.17400
H284        H  0.58772219  0.74137444  0.12272926     0.20600
H285        H  0.56979639  0.60208211  0.08345664     0.19000
H286        H  0.60997226  0.63690610  0.03434342     0.18900
H287        H  0.53772871  0.70975751  0.16818990     0.14800
C288        C  0.59332649  0.66186477  0.41738706     0.30300
C289        C  0.57233078  0.63072463  0.40403960    -0.36100
C290        C  0.55668397  0.63933208  0.37688989     0.16200
C291        C  0.56073691  0.67629592  0.36408212     0.22100
C292        C  0.58242378  0.70708925  0.37712580    -0.34200
C293        C  0.59862651  0.69825124  0.40399247     0.16100
O294        O  0.60860039  0.66124201  0.44342552    -0.26200
C295        C  0.62437762  0.69748230  0.44646683     0.05900
C296        C  0.61931690  0.72166462  0.42254712    -0.31100
O297        O  0.54151236  0.67869748  0.33960925    -0.22900
C298        C  0.52570814  0.64256150  0.33640678    -0.02900
C299        C  0.53429036  0.61667654  0.35877064    -0.17400
H300        H  0.56784899  0.60210451  0.41433106     0.20600
H301        H  0.58574099  0.73617026  0.36728795     0.19000
H302        H  0.62792243  0.75261240  0.41983407     0.18900
H303        H  0.52415200  0.58625138  0.36174208     0.14800
C304        C  0.67619137  0.76100851  0.49953776     0.80700
N305        N  0.66432540  0.74791833  0.96832140    -0.77600
C306        C  0.64303399  0.71334113  0.96830085     0.83200
N307        N  0.63128351  0.69705511  0.99369453    -0.77500
C308        C  0.64757618  0.70638038  0.52380428     0.83300
N309        N  0.66805724  0.74129398  0.52436317    -0.79300
C310        C  0.20258689  0.86171573  0.50261996     0.80700
N311        N  0.21978621  0.85159704  0.96980075    -0.77600
C312        C  0.25343185  0.82929448  0.96949378     0.83200
N313        N  0.26897387  0.81656476  0.99466794    -0.77500
C314        C  0.25693043  0.83310918  0.52635564     0.83300
N315        N  0.22175857  0.85275035  0.52733615    -0.79300
C316        C  0.57771472  0.29247397  0.49484862     0.80700
N317        N  0.55827812  0.30151440  0.51966800    -0.77600
C318        C  0.52375913  0.32211216  0.51915575     0.83200
N319        N  0.51006594  0.33595273  0.99496859    -0.77500
C320        C  0.52546187  0.32271841  0.96960778     0.83300
N321        N  0.55929749  0.30094399  0.96948104    -0.79300
N322        N  0.90037629  0.01595769  0.49765945    -0.36100
N323        N  0.94976173  0.08731295  0.49922607    -0.56700
N324        N  0.87814414  0.13723328  0.49901523    -0.36100
N325        N  0.82886275  0.06576124  0.50102107    -0.56700
C326        C  0.93623043  0.99876304  0.50123780     0.27500
C327        C  0.87248911  0.98721632  0.50078493     0.27500
C328        C  0.90615661  0.16561645  0.50267965     0.27500
C329        C  0.84262897  0.15418952  0.50476237     0.27500
C330        C  0.97885443  0.05983590  0.49673974     0.36100
C331        C  0.96700013  0.12346787  0.49603973     0.36100
C332        C  0.81129089  0.02968970  0.49797150     0.36100
C333        C  0.79975621  0.09338677  0.50040442     0.36100
C334        C  0.93106082  0.95825733  0.50622311    -0.21400
C335        C  0.89099161  0.95094171  0.50580104    -0.21400
C336        C  0.88815873  0.20140660  0.51038347    -0.21400
C337        C  0.84811333  0.19418179  0.51172060    -0.21400
C338        C  0.01496943  0.07869748  0.49233415    -0.22500
C339        C  0.00745508  0.11897330  0.49175980    -0.22500
C340        C  0.77059287  0.03447457  0.49603450    -0.22500
C341        C  0.76333747  0.07474241  0.49751592    -0.22500
C342        C  0.97360806  0.01804113  0.49928222    -0.17800
C343        C  0.83093797  0.99231899  0.49841605    -0.17800
C344        C  0.80526574  0.13515430  0.50307879    -0.17800
C345        C  0.94739995  0.16062567  0.49863350    -0.17800
H346        H  0.95380195  0.93611485  0.50964214     0.15100
H347        H  0.87719246  0.92203845  0.50882887     0.15100
H348        H  0.90237356  0.22982610  0.51467783     0.15100
H349        H  0.82561050  0.21594049  0.51723434     0.15100
H350        H  0.04375290  0.06492242  0.48987219     0.13400
H351        H  0.02939395  0.14229266  0.48890709     0.13400
H352        H  0.74824067  0.01142058  0.49412204     0.13400
H353        H  0.73448311  0.08863919  0.49674676     0.13400
H354        H  0.89508963  0.04535621  0.49228510     0.26600
H355        H  0.88305608  0.10840720  0.49171545     0.26600
C356        C  0.10774350  0.38671555  0.49654511     0.80700
N357        N  0.11721227  0.41145088  0.97377394    -0.77600
C358        C  0.13969147  0.44515952  0.97399461     0.84000
N359        N  0.14935829  0.46259566  0.99942831    -0.77500
C360        C  0.13726166  0.43959907  0.52218172     0.83300
N361        N  0.11765509  0.40410790  0.52192642    -0.79300
C362        C  0.43285249  0.46112018  0.81248900     0.42900
N363        N  0.40316080  0.48968174  0.77772336     0.01800
C364        C  0.47418757  0.64349976  0.69293083    -0.06000
H365        H  0.47039103  0.67762072  0.80078127     0.07300
C366        C  0.31839563  0.65864567  0.79728248    -0.06400
Co367      Co  0.45728999  0.54516428  0.74591038     0.74200
N368        N  0.45833066  0.62382990  0.77647619    -0.25600
Co369      Co  0.41764245  0.64039177  0.74530551     0.74100
C370        C  0.34567886  0.68535674  0.81183927     0.43100
N371        N  0.30697405  0.55975087  0.77734126     0.01500
N372        N  0.37625601  0.65672223  0.77696602     0.01600
N373        N  0.50030523  0.58120042  0.69320989    -0.46400
H374        H  0.49133118  0.49370314  0.80259825     0.07300
N375        N  0.47310557  0.58735828  0.77730624     0.01800
N376        N  0.37693830  0.65533130  0.71339688     0.01600
C377        C  0.34780995  0.68171010  0.67753517     0.43200
N378        N  0.32189100  0.52333291  0.77699333    -0.25000
C379        C  0.46107662  0.48797224  0.69338290    -0.05900
N380        N  0.39794258  0.46325167  0.79864613    -0.46100
N381        N  0.38243523  0.68063120  0.69180503    -0.46400
C382        C  0.43347200  0.46164639  0.67878525     0.43000
N383        N  0.47346094  0.58604836  0.71399132     0.01800
N384        N  0.32225876  0.52205872  0.71469486    -0.25000
N385        N  0.43934407  0.50472372  0.77720745    -0.25500
N386        N  0.30746383  0.55849305  0.71409197     0.01500
H387        H  0.31172479  0.46913250  0.68905597     0.07400
H388        H  0.28931412  0.64937342  0.68771827     0.07400
N389        N  0.45800254  0.62221018  0.71420202    -0.25600
N390        N  0.34003539  0.64186265  0.77627276    -0.25200
N391        N  0.40368497  0.48913206  0.71435757     0.01800
C392        C  0.50269789  0.61911457  0.81107276     0.43200
C393        C  0.30593754  0.50240761  0.79856588    -0.06500
N394        N  0.34082242  0.64023882  0.71397670    -0.25200
H395        H  0.28742009  0.65289784  0.80168938     0.07400
N396        N  0.49988586  0.58316451  0.79783425    -0.46400
H397        H  0.31200252  0.47147510  0.80344850     0.07400
C398        C  0.27965509  0.52789832  0.67918464     0.43100
C399        C  0.46042061  0.48807347  0.79821839    -0.05900
Co400      Co  0.36242380  0.50514579  0.74595101     0.73800
N401        N  0.28127668  0.56539528  0.79873912    -0.46100
C402        C  0.50194204  0.61633370  0.67905609     0.43300
N403        N  0.39845353  0.46340596  0.69288562    -0.46100
Co404      Co  0.32298036  0.60043790  0.74543441     0.73900
C405        C  0.32005918  0.65556942  0.69233069    -0.06500
C406        C  0.47563000  0.64618934  0.79683769    -0.06000
N407        N  0.43988752  0.50406622  0.71489947    -0.25500
N408        N  0.38103929  0.68308242  0.79813409    -0.46300
H409        H  0.46807068  0.67451609  0.68836719     0.07300
C410        C  0.30601747  0.50033939  0.69356404    -0.06400
Cl411      Cl  0.39010777  0.57277789  0.74572157    -0.49400
C412        C  0.27959549  0.53037594  0.81295903     0.43100
H413        H  0.49187961  0.49407245  0.68858770     0.07300
N414        N  0.28166218  0.56336054  0.69304258    -0.46100
C415        C  0.17978856  0.49495322  0.57796739     0.30300
C416        C  0.20028021  0.52718623  0.59041794    -0.36100
C417        C  0.21746628  0.51980956  0.61728352     0.16200
C418        C  0.21504198  0.48307126  0.63061943     0.22100
C419        C  0.19360057  0.45137841  0.61862834    -0.34200
C420        C  0.17603997  0.45889912  0.59206997     0.16100
O421        O  0.16507851  0.49362194  0.55176083    -0.26200
C422        C  0.15122337  0.45648747  0.54940969     0.05900
C423        C  0.15677824  0.43372944  0.57394592    -0.31100
O424        O  0.23627095  0.48139499  0.65416634    -0.22900
C425        C  0.25187238  0.51771172  0.65634410    -0.02900
C426        C  0.24103052  0.54314593  0.63420082    -0.17400
H427        H  0.20394062  0.55541193  0.57942327     0.20600
H428        H  0.19206310  0.42235368  0.62875887     0.19000
H429        H  0.15046139  0.40230158  0.57704782     0.18900
H430        H  0.25073541  0.57353486  0.63040414     0.14800
C431        C  0.22127115  0.48472154  0.86519396     0.30300
C432        C  0.20390570  0.45209981  0.87907920    -0.36100
C433        C  0.18508500  0.46043138  0.90528301     0.16200
C434        C  0.18402493  0.49817508  0.91742415     0.22100
C435        C  0.20081816  0.53118666  0.90316607    -0.34200
C436        C  0.21916175  0.52292399  0.87652382     0.16100
O437        O  0.24212510  0.48292552  0.84128089    -0.26200
C438        C  0.25306695  0.52045495  0.83679311     0.05900
C439        C  0.23948159  0.54697260  0.85781999    -0.31100
O440        O  0.16725946  0.49823893  0.94321179    -0.22900
C441        C  0.15684408  0.46021824  0.94710287    -0.02900
C442        C  0.16703139  0.43545922  0.92417937    -0.17400
H443        H  0.20570413  0.42210749  0.87032355     0.20600
H444        H  0.20036324  0.56092583  0.91244534     0.19000
H445        H  0.24536318  0.57868795  0.85973387     0.18900
H446        H  0.16338339  0.40339197  0.92236776     0.14800
C447        C  0.05363955  0.29996388  0.51066902     0.30300
C448        C  0.03654182  0.26998113  0.52764623    -0.36100
C449        C  0.01142789  0.24339675  0.51324026     0.16200
C450        C  0.00347774  0.24620339  0.48416182     0.22100
C451        C  0.02072894  0.27606489  0.46715515    -0.34200
C452        C  0.04611258  0.30242903  0.48152641     0.16100
O453        O  0.07704486  0.32878337  0.51981922    -0.26200
C454        C  0.08475662  0.34969615  0.49616645     0.05900
C455        C  0.06660172  0.33453699  0.47166773    -0.31100
O456        O  0.97939216  0.21790263  0.47513972    -0.22900
C457        C  0.97209881  0.19681419  0.49875650    -0.02900
C458        C  0.99107860  0.21116911  0.52309566    -0.17400
H459        H  0.04230521  0.26762543  0.55047576     0.20600
H460        H  0.01481339  0.27854902  0.44435214     0.19000
H461        H  0.07952265  0.34324093  0.95179978     0.18900
H462        H  0.99030709  0.19917761  0.54470096     0.14800
C463        C  0.72102283  0.19203504  0.98152560     0.30300
C464        C  0.69135796  0.20890871  0.96457166    -0.36100
C465        C  0.66278240  0.23148310  0.97940240     0.16200
C466        C  0.66028137  0.23447451  0.51225150     0.22100
C467        C  0.68483550  0.21165501  0.53002399    -0.34200
C468        C  0.71747488  0.19355092  0.51639900     0.16100
O469        O  0.75077756  0.17003868  0.97212034    -0.26200
C470        C  0.76978467  0.16091644  0.50290351     0.05900
C471        C  0.74628184  0.16931178  0.52692757    -0.31100
O472        O  0.62774002  0.25332115  0.52024976    -0.22900
C473        C  0.61464523  0.26945928  0.49596837    -0.02900
C474        C  0.63068571  0.25149348  0.96959184    -0.17400
H475        H  0.69065193  0.20479236  0.94143435     0.20600
H476        H  0.67870613  0.20797054  0.55278495     0.19000
H477        H  0.74990792  0.15893724  0.54878847     0.18900
H478        H  0.62064990  0.25383201  0.94757949     0.14800
C479        C  0.46758273  0.36503238  0.57485622     0.30300
C480        C  0.43552804  0.38548978  0.58749228    -0.36100
C481        C  0.44216101  0.40155014  0.61505150     0.16200
C482        C  0.47809249  0.39823052  0.62880472     0.22100
C483        C  0.50957489  0.37694361  0.61658315    -0.34200
C484        C  0.50272611  0.36037665  0.58940571     0.16100
O485        O  0.46950911  0.35080642  0.54830161    -0.26200
C486        C  0.50606744  0.33625486  0.54624848     0.05900
C487        C  0.52784099  0.34103805  0.57125671    -0.31100
O488        O  0.47928496  0.41845111  0.65309101    -0.22900
C489        C  0.44344618  0.43424564  0.65535118    -0.02900
C490        C  0.41878078  0.42461399  0.63250567    -0.17400
H491        H  0.40794545  0.38978506  0.57625455     0.20600
H492        H  0.53793098  0.37465037  0.62711503     0.19000
H493        H  0.55867341  0.33399833  0.57477411     0.18900
H494        H  0.38895850  0.43488673  0.62863556     0.14800
C495        C  0.47745692  0.39501850  0.86003769     0.30300
C496        C  0.50899288  0.37321926  0.87135635    -0.36100
C497        C  0.50297009  0.35748411  0.89892473     0.16200
C498        C  0.46843838  0.36323845  0.91449362     0.22100
C499        C  0.43633220  0.38400303  0.90277172    -0.34200
C500        C  0.44219394  0.39938841  0.87497365     0.16100
O501        O  0.47829052  0.41544179  0.83590365    -0.26200
C502        C  0.44285622  0.43244595  0.83497244     0.05900
C503        C  0.41886301  0.42329567  0.85853263    -0.31100
O504        O  0.47113516  0.35023119  0.94117436    -0.22900
C505        C  0.50757789  0.33536970  0.94246690    -0.02900
C506        C  0.52857178  0.33865566  0.91671475    -0.17400
H507        H  0.53695596  0.37031066  0.85999591     0.20600
H508        H  0.40940362  0.38935956  0.91496876     0.19000
H509        H  0.38968519  0.43471659  0.86365274     0.18900
H510        H  0.55924629  0.33122010  0.91248676     0.14800
C511        C  0.11869815  0.92083210  0.98196279     0.30300
C512        C  0.09173883  0.94242972  0.96533402    -0.36100
C513        C  0.06103871  0.96146929  0.98058103     0.16200
C514        C  0.05703354  0.95939262  0.01017385     0.22100
C515        C  0.08681064  0.94319037  0.53260849    -0.34200
C516        C  0.11467569  0.91875584  0.01154105     0.16100
O517        O  0.14976888  0.90092676  0.97220638    -0.26200
C518        C  0.16516386  0.88412214  0.50335645     0.05900
C519        C  0.14776539  0.90022199  0.52813130    -0.31100
O520        O  0.02843936  0.98382933  0.52403160    -0.22900
C521        C  0.00948710  0.99268249  0.49985667    -0.02900
C522        C  0.03078483  0.98465857  0.97119459    -0.17400
H523        H  0.09458494  0.94438681  0.94214022     0.20600
H524        H  0.08736691  0.94780622  0.55570172     0.19000
H525        H  0.15802971  0.89847520  0.55011737     0.18900
H526        H  0.02414369  0.99313564  0.94929753     0.14800
C527        C  0.31391188  0.78914724  0.58008746     0.30300
C528        C  0.34632020  0.76837023  0.59147235    -0.36100
C529        C  0.33915063  0.74812731  0.61746918     0.16200
C530        C  0.30249233  0.74804369  0.63087480     0.22100
C531        C  0.27073730  0.76976480  0.62006234    -0.34200
C532        C  0.27802885  0.79039256  0.59451043     0.16100
O533        O  0.31210477  0.80600271  0.55447698    -0.26200
C534        C  0.27485412  0.81879591  0.55300074     0.05900
C535        C  0.25258101  0.81039772  0.57746290    -0.31100
O536        O  0.30107100  0.72472419  0.65349978    -0.22900
C537        C  0.33745144  0.71023115  0.65515516    -0.02900
C538        C  0.36271198  0.72381033  0.63346000    -0.17400
H539        H  0.37451262  0.76671038  0.58028492     0.20600
H540        H  0.24183403  0.76933200  0.63029693     0.19000
H541        H  0.22118392  0.81490745  0.58094997     0.18900
H542        H  0.39327871  0.71572884  0.62948741     0.14800
C543        C  0.29977630  0.74996466  0.86074981     0.30300
C544        C  0.26807888  0.77176903  0.87238356    -0.36100
C545        C  0.27438406  0.78910258  0.89946312     0.16200
C546        C  0.30924449  0.78459935  0.91436967     0.22100
C547        C  0.34137751  0.76348010  0.90241964    -0.34200
C548        C  0.33531500  0.74673248  0.87500864     0.16100
O549        O  0.29922536  0.72932810  0.83657511    -0.26200
C550        C  0.33510329  0.71335218  0.83491492     0.05900
C551        C  0.35909376  0.72326170  0.85808694    -0.31100
O552        O  0.30709100  0.79974537  0.94061907    -0.22900
C553        C  0.27068823  0.81479209  0.94227241    -0.02900
C554        C  0.24912281  0.80935526  0.91719807    -0.17400
H555        H  0.24001993  0.77403509  0.86144644     0.20600
H556        H  0.36868800  0.75936333  0.91403735     0.19000
H557        H  0.38876885  0.71298502  0.86248839     0.18900
H558        H  0.21838739  0.81653091  0.91342836     0.14800
C559        C  0.77676658  0.90489074  0.51217148     0.30300
C560        C  0.76203480  0.87329510  0.52880981    -0.36100
C561        C  0.73701375  0.84639790  0.51457886     0.16200
C562        C  0.72725006  0.85016978  0.48589908     0.22100
C563        C  0.74178817  0.88196046  0.46927072    -0.34200
C564        C  0.76679802  0.90893585  0.48353564     0.16100
O565        O  0.80073431  0.93334615  0.52114101    -0.26200
C566        C  0.80611092  0.95593213  0.49798087     0.05900
C567        C  0.78581235  0.94225607  0.47391235    -0.31100
O568        O  0.71309220  0.81862513  0.96999687    -0.22900
C569        C  0.69915147  0.79825275  0.50004679    -0.02900
C570        C  0.71869095  0.81275724  0.52419043    -0.17400
H571        H  0.76972631  0.86981132  0.55124302     0.20600
H572        H  0.75775617  0.87329524  0.93944021     0.19000
H573        H  0.80716881  0.94388138  0.94605688     0.18900
H574        H  0.71987449  0.79991252  0.54551981     0.14800
C575        C  0.60771545  0.68633878  0.59144801     0.30300
C576        C  0.58790145  0.69694080  0.61686650    -0.36100
C577        C  0.56882584  0.66582474  0.63135244     0.16200
C578        C  0.56982384  0.62655638  0.62207107     0.22100
C579        C  0.58997491  0.61583260  0.59657579    -0.34200
C580        C  0.60827849  0.64732363  0.58155453     0.16100
O581        O  0.62368896  0.71154357  0.57309718    -0.26200
C582        C  0.63425276  0.68865910  0.55092154     0.05900
C583        C  0.62549565  0.64838819  0.55488323    -0.31100
O584        O  0.54744426  0.60296509  0.63819787    -0.22900
C585        C  0.53179521  0.62785478  0.65762682    -0.02900
C586        C  0.54410303  0.66713431  0.65437920    -0.17400
H587        H  0.58565443  0.72770805  0.62400517     0.20600
H588        H  0.58958767  0.58556354  0.58824959     0.19000
H589        H  0.62922427  0.62399534  0.53970098     0.18900
H590        H  0.53505451  0.69319013  0.66666168     0.14800
C591        C  0.60049845  0.65614922  0.91310224     0.30300
C592        C  0.57960476  0.62369592  0.90121703    -0.36100
C593        C  0.56396336  0.62957690  0.87361290     0.16200
C594        C  0.56811698  0.66520181  0.85901675     0.22100
C595        C  0.59001037  0.69710487  0.87050207    -0.34200
C596        C  0.60606985  0.69103597  0.89785560     0.16100
O597        O  0.61416314  0.65875173  0.93960816    -0.26200
C598        C  0.62928354  0.69551156  0.94112594     0.05900
C599        C  0.62545636  0.71678039  0.91566920    -0.31100
O600        O  0.54774323  0.66583842  0.83494702    -0.22900
C601        C  0.53098697  0.62987503  0.83370087    -0.02900
C602        C  0.54028748  0.60579906  0.85700958    -0.17400
H603        H  0.57452584  0.59641174  0.91312128     0.20600
H604        H  0.59294297  0.72531486  0.85938205     0.19000
H605        H  0.63312588  0.74769257  0.91164574     0.18900
H606        H  0.52925090  0.57616099  0.86182811     0.14800
loop_ 
_geom_bond_atom_site_label_1 
_geom_bond_atom_site_label_2 
_geom_bond_distance 
_geom_bond_site_symmetry_2 
_ccdc_geom_bond_type 
C1            N6   1.357   1_556  A
C1          N305   1.359       .  A
C1          C266   1.469       .  S
N2            C3   1.358       .  A
N2          C304   1.356       .  A
C3            N4   1.357       .  A
C3          C295   1.465       .  S
N4          C308   1.357       .  A
C5            N6   1.355       .  A
C5          N307   1.357   1_554  A
C5          C279   1.464       .  S
C7           N12   1.358   1_556  A
C7          N311   1.360       .  A
C7          C215   1.473       .  S
N8            C9   1.359       .  A
N8          C310   1.357       .  A
C9           N10   1.356       .  A
C9          C250   1.465       .  S
N10         C314   1.356       .  A
C11          N12   1.357       .  A
C11         N313   1.355   1_554  A
C11         C231   1.464       .  S
C13          N14   1.359   1_556  A
C13         N321   1.359       .  A
C13         C170   1.470       .  S
N14          C15   1.360       .  A
C15         N319   1.356   1_554  A
C15         C183   1.467       .  S
N16          C17   1.358       .  A
N16         C318   1.357       .  A
C17          N18   1.360       .  A
C17         C202   1.468       .  S
N18         C316   1.359       .  A
N19          C24   1.352   1_545  A
N19          C23   1.353       .  A
N19          H51   1.033       .  S
N20          C27   1.353       .  A
N20          C28   1.353       .  A
N21          C26   1.354   1_556  A
N21          C25   1.353   1_556  A
N21          H52   1.033       .  S
N22          C29   1.350       .  A
N22          C30   1.351       .  A
C23          C31   1.388   1_546  A
C23          C39   1.416       .  A
C24          C40   1.416       .  A
C24          C32   1.388   1_556  A
C25          C33   1.388       .  A
C25          C42   1.418   1_554  A
C26          C41   1.417   1_554  A
C26          C34   1.387       .  A
C27          C39   1.417       .  A
C27          C35   1.386   1_655  A
C28          C42   1.417       .  A
C28          C36   1.387   1_655  A
C29          C37   1.387       .  A
C29          C40   1.413   1_545  A
C30          C38   1.387       .  A
C30          C41   1.413       .  A
C31          C32   1.376       .  A
C31          H43   1.082       .  S
C32          H44   1.082       .  S
C33          C34   1.374       .  A
C33          H45   1.081       .  S
C34          H46   1.082       .  S
C35          C36   1.374       .  A
C35          H47   1.082       .  S
C36          H48   1.082       .  S
C37          C38   1.372       .  A
C37          H49   1.082       .  S
C38          H50   1.082       .  S
C39         C218   1.480   1_645  S
C40         C263   1.474       .  S
C41         C167   1.478       .  S
C42         C154   1.481   1_556  S
C53          N58   1.358   1_556  A
C53         N357   1.357       .  A
C53         C151   1.472       .  S
N54          C55   1.354       .  A
N54         C356   1.354       .  A
C55          N56   1.356       .  A
C55         C138   1.460       .  S
N56         C360   1.357       .  A
C57          N58   1.360       .  A
C57         N359   1.357   1_554  A
C57         C119   1.465       .  S
C59          N77   1.351       .  A
C59          C96   1.454       .  S
C59         C199   1.467       .  S
N60          N77   1.327       .  A
N60          N82   1.320       .  A
N60         Co97   2.094       .  S
C61          N86   1.338       .  A
C61          C99   1.453       .  S
C61         H106   1.082       .  S
H62         C103   1.082       .  S
C63          N87   1.337       .  A
C63          C67   1.453       .  S
C63          H92   1.082       .  S
Co64         N82   2.078       .  S
Co64         N72   2.091       .  S
Co64        N104   2.079       .  S
Co64         N80   2.088       .  S
Co64       Cl108   2.446       .  S
N65         C103   1.338       .  A
N65          N72   1.321       .  A
N65         Co66   2.074       .  S
Co66         N69   2.083       .  S
Co66         N86   2.070       .  S
Co66         N73   2.093       .  S
Co66       Cl108   2.454       .  S
C67         N105   1.348       .  A
C67         C247   1.459       .  S
N68          N75   1.321       .  A
N68          N98   1.325       .  A
N68        Co101   2.087       .  S
N69          N87   1.320       .  A
N69         N105   1.325       .  A
N70          C99   1.348       .  A
N70          N80   1.325       .  A
H71          C96   1.082       .  S
N72          N93   1.326       .  A
N73          N91   1.320       .  A
N73          N78   1.327       .  A
C74          N78   1.351       .  A
C74         C102   1.450       .  S
C74         C234   1.462       .  S
N75          C90   1.338       .  A
N75         Co97   2.077       .  S
C76         N104   1.338       .  A
C76          C79   1.453       .  S
C76         H110   1.081       .  S
C79         N100   1.350       .  A
C79         C186   1.464       .  S
N80          N86   1.320       .  A
N81         C107   1.338       .  A
N81          N83   1.320       .  A
N81         Co97   2.077       .  S
N82          C96   1.339       .  A
N83         N111   1.326       .  A
N83        Co101   2.086       .  S
H84         C107   1.082       .  S
H85         C102   1.082       .  S
N87        Co101   2.074       .  S
N88         N100   1.327       .  A
N88         N104   1.320       .  A
N88         Co97   2.091       .  S
C89          N93   1.349       .  A
C89         C103   1.452       .  S
C89         C298   1.461       .  S
C90         C109   1.453       .  S
C90          H94   1.082       .  S
N91         C102   1.336       .  A
N91        Co101   2.069       .  S
C95         N111   1.348       .  A
C95         C107   1.454       .  S
C95         C122   1.461       .  S
Co97       Cl108   2.453       .  S
N98         C109   1.348       .  A
C99         C282   1.459       .  S
Co101      Cl108   2.447       .  S
C109        C135   1.460       .  S
C112        C117   1.381       .  A
C112        C113   1.406       .  A
C112        O118   1.320       .  A
C113        C114   1.405       .  A
C113        H124   1.082       .  S
C114        C123   1.365       .  A
C114        C115   1.381       .  A
C115        C116   1.399       .  A
C115        O121   1.314       .  A
C116        C117   1.398       .  A
C116        H125   1.082       .  S
C117        C120   1.357       .  A
O118        C119   1.332       .  A
C119        C120   1.388       .  A
C120        H126   1.083       .  S
O121        C122   1.327       .  A
C122        C123   1.391       .  A
C123        H127   1.083       .  S
C128        C133   1.382       .  A
C128        C129   1.398       .  A
C128        O134   1.315       .  A
C129        C130   1.397       .  A
C129        H140   1.082       .  S
C130        C139   1.355       .  A
C130        C131   1.381       .  A
C131        C132   1.403       .  A
C131        O137   1.318       .  A
C132        C133   1.402       .  A
C132        H141   1.082       .  S
C133        C136   1.362       .  A
O134        C135   1.328       .  A
C135        C136   1.389       .  A
C136        H142   1.082       .  S
O137        C138   1.330       .  A
C138        C139   1.388       .  A
C139        H143   1.083       .  S
C144        C149   1.380   1_554  A
C144        C145   1.404       .  A
C144        O150   1.320       .  A
C145        C146   1.403       .  A
C145        H156   1.082       .  S
C146        C155   1.362   1_455  A
C146        C147   1.381   1_554  A
C147        C148   1.403       .  A
C147        O153   1.318   1_455  A
C148        C149   1.402       .  A
C148        H157   1.082       .  S
C149        C152   1.361       .  A
O150        C151   1.331   1_554  A
C151        C152   1.391       .  A
C152        H461   1.083       .  S
O153        C154   1.330   1_556  A
C154        C155   1.391       .  A
C155        H159   1.082       .  S
H158        C455   1.083       .  S
C160        C161   1.402       .  A
C160        C468   1.381       .  A
C160        O166   1.317       .  A
C161        C162   1.400       .  A
C161        H172   1.082       .  S
C162        C171   1.361       .  A
C162        C466   1.380       .  A
C163        C164   1.403       .  A
C163        C465   1.381   1_554  A
C163        O169   1.319       .  A
C164        C165   1.402       .  A
C164        H173   1.082       .  S
C165        C168   1.361       .  A
C165        C463   1.381   1_554  A
O166        C470   1.328       .  A
C167        C168   1.390   1_556  A
C167        O469   1.329       .  A
C168        H174   1.082       .  S
O169        C170   1.331   1_554  A
C170        C474   1.391       .  A
C171        C473   1.390       .  A
C171        H175   1.082       .  S
C176        C181   1.380       .  A
C176        C177   1.405       .  A
C176        O182   1.318       .  A
C177        C178   1.403       .  A
C177        H188   1.082       .  S
C178        C187   1.365       .  A
C178        C179   1.381       .  A
C179        C180   1.402       .  A
C179        O185   1.316       .  A
C180        C181   1.400       .  A
C180        H189   1.082       .  S
C181        C184   1.361       .  A
O182        C183   1.331       .  A
C183        C184   1.390       .  A
C184        H190   1.083       .  S
O185        C186   1.328       .  A
C186        C187   1.391       .  A
C187        H191   1.083       .  S
C192        C197   1.381       .  A
C192        C193   1.401       .  A
C192        O198   1.317       .  A
C193        C194   1.400       .  A
C193        H204   1.082       .  S
C194        C203   1.359       .  A
C194        C195   1.381       .  A
C195        C196   1.406       .  A
C195        O201   1.320       .  A
C196        C197   1.405       .  A
C196        H205   1.082       .  S
C197        C200   1.365       .  A
O198        C199   1.329       .  A
C199        C200   1.391       .  A
C200        H206   1.082       .  S
O201        C202   1.332       .  A
C202        C203   1.389       .  A
C203        H207   1.083       .  S
C208        C213   1.380       .  A
C208        C209   1.402       .  A
C208        O214   1.318       .  A
C209        C210   1.401       .  A
C209        H220   1.082       .  S
C210        C219   1.361       .  A
C210        C211   1.381       .  A
C211        C515   1.406       .  A
C211        O520   1.321       .  A
C212        C514   1.403       .  A
C212        C516   1.403       .  A
C212        H221   1.082       .  S
C213        C515   1.405       .  A
C213        C519   1.365       .  A
O214        C518   1.330       .  A
C215        C216   1.392   1_556  A
C215        O517   1.331       .  A
C216        C516   1.361       .  A
C216        H222   1.083       .  S
O217        C218   1.330   1_554  A
O217        C514   1.320       .  A
C218        C522   1.390       .  A
C219        C521   1.389       .  A
C219        H223   1.082       .  S
C224        C229   1.381       .  A
C224        C225   1.405       .  A
C224        O230   1.319       .  A
C225        C226   1.404       .  A
C225        H236   1.082       .  S
C226        C235   1.365       .  A
C226        C227   1.381       .  A
C227        C228   1.399       .  A
C227        O233   1.314       .  A
C228        C229   1.398       .  A
C228        H237   1.082       .  S
C229        C232   1.358       .  A
O230        C231   1.331       .  A
C231        C232   1.388       .  A
C232        H238   1.083       .  S
O233        C234   1.328       .  A
C234        C235   1.390       .  A
C235        H239   1.082       .  S
C240        C245   1.382       .  A
C240        C241   1.399       .  A
C240        O246   1.314       .  A
C241        C242   1.398       .  A
C241        H252   1.082       .  S
C242        C251   1.357       .  A
C242        C243   1.381       .  A
C243        C244   1.404       .  A
C243        O249   1.319       .  A
C244        C245   1.403       .  A
C244        H253   1.082       .  S
C245        C248   1.364       .  A
O246        C247   1.327       .  A
C247        C248   1.390       .  A
C248        H254   1.083       .  S
O249        C250   1.331       .  A
C250        C251   1.388       .  A
C251        H255   1.083       .  S
C256        C261   1.382   1_554  A
C256        C257   1.401       .  A
C256        O262   1.317       .  A
C257        C258   1.401       .  A
C257        H268   1.082       .  S
C258        C267   1.359       .  A
C258        C259   1.381   1_554  A
C259        C260   1.402       .  A
C259        O568   1.319       .  A
C260        C261   1.402       .  A
C260        H572   1.082       .  S
C261        C264   1.360       .  A
O262        C263   1.329   1_554  A
C263        C264   1.388       .  A
C264        H573   1.082       .  S
O265        C562   1.318       .  A
O265        C569   1.331       .  A
C266        C267   1.391   1_556  A
C266        O568   1.330       .  A
C267        H271   1.083       .  S
H269        C563   1.082       .  S
H270        C567   1.082       .  S
C272        C277   1.381       .  A
C272        C273   1.401       .  A
C272        O278   1.317       .  A
C273        C274   1.401       .  A
C273        H284   1.082       .  S
C274        C283   1.359       .  A
C274        C275   1.382       .  A
C275        C276   1.401       .  A
C275        O281   1.318       .  A
C276        C277   1.401       .  A
C276        H285   1.082       .  S
C277        C280   1.359       .  A
O278        C279   1.330       .  A
C279        C280   1.389       .  A
C280        H286   1.082       .  S
O281        C282   1.328       .  A
C282        C283   1.388       .  A
C283        H287   1.083       .  S
C288        C293   1.381       .  A
C288        C289   1.403       .  A
C288        O294   1.318       .  A
C289        C290   1.402       .  A
C289        H300   1.082       .  S
C290        C299   1.362       .  A
C290        C291   1.381       .  A
C291        C292   1.401       .  A
C291        O297   1.316       .  A
C292        C293   1.400       .  A
C292        H301   1.082       .  S
C293        C296   1.358       .  A
O294        C295   1.331       .  A
C295        C296   1.390       .  A
C296        H302   1.083       .  S
O297        C298   1.329       .  A
C298        C299   1.389       .  A
C299        H303   1.082       .  S
C304        N309   1.357       .  A
C304        C569   1.466       .  S
N305        C306   1.361       .  A
C306        N307   1.357       .  A
C306        C598   1.471       .  S
C308        N309   1.356       .  A
C308        C582   1.461       .  S
C310        N315   1.358       .  A
C310        C518   1.472       .  S
N311        C312   1.362       .  A
C312        N313   1.356       .  A
C312        C553   1.468       .  S
C314        N315   1.360       .  A
C314        C534   1.465       .  S
C316        N317   1.354       .  A
C316        C473   1.470       .  S
N317        C318   1.357       .  A
C318        C486   1.464       .  S
N319        C320   1.355       .  A
C320        N321   1.358       .  A
C320        C505   1.467       .  S
N322        C327   1.352   1_545  A
N322        C326   1.355   1_545  A
N322        H354   1.033       .  S
N323        C330   1.352       .  A
N323        C331   1.350       .  A
N324        C329   1.353       .  A
N324        C328   1.350       .  A
N324        H355   1.034       .  S
N325        C332   1.351       .  A
N325        C333   1.352       .  A
C326        C334   1.387       .  A
C326        C342   1.419   1_565  A
C327        C343   1.420       .  A
C327        C335   1.389       .  A
C328        C336   1.389       .  A
C328        C345   1.415       .  A
C329        C344   1.415       .  A
C329        C337   1.387       .  A
C330        C342   1.415       .  A
C330        C338   1.386   1_655  A
C331        C345   1.415       .  A
C331        C339   1.388   1_655  A
C332        C340   1.389       .  A
C332        C343   1.418   1_545  A
C333        C341   1.385       .  A
C333        C344   1.414       .  A
C334        C335   1.375       .  A
C334        H346   1.082       .  S
C335        H347   1.082       .  S
C336        C337   1.375       .  A
C336        H348   1.082       .  S
C337        H349   1.082       .  S
C338        C339   1.373       .  A
C338        H350   1.082       .  S
C339        H351   1.083       .  S
C340        C341   1.372       .  A
C340        H352   1.082       .  S
C341        H353   1.082       .  S
C342        C521   1.482   1_645  S
C343        C566   1.477       .  S
C344        C470   1.479       .  S
C345        C457   1.469       .  S
C356        N361   1.355       .  A
C356        C454   1.460       .  S
N357        C358   1.358       .  A
C358        N359   1.356       .  A
C358        C441   1.463       .  S
C360        N361   1.358       .  A
C360        C422   1.463       .  S
C362        N380   1.350       .  A
C362        C399   1.453       .  S
C362        C502   1.464       .  S
N363        N380   1.327       .  A
N363        N385   1.321       .  A
N363       Co400   2.094       .  S
C364        N389   1.333       .  A
C364        C402   1.452       .  S
C364        H409   1.081       .  S
H365        C406   1.082       .  S
C366        N390   1.336       .  A
C366        C370   1.451       .  S
C366        H395   1.082       .  S
Co367       N385   2.076       .  S
Co367       N375   2.095       .  S
Co367       N407   2.073       .  S
Co367       N383   2.090       .  S
Co367      Cl411   2.454       .  S
N368        C406   1.339       .  A
N368        N375   1.321       .  A
N368       Co369   2.083       .  S
Co369       N372   2.091       .  S
Co369       N389   2.068       .  S
Co369       N376   2.093       .  S
Co369      Cl411   2.444       .  S
C370        N408   1.351       .  A
C370        C550   1.462       .  S
N371        N378   1.320       .  A
N371        N401   1.327       .  A
N371       Co404   2.084       .  S
N372        N390   1.320       .  A
N372        N408   1.327       .  A
N373        C402   1.351       .  A
N373        N383   1.328       .  A
H374        C399   1.082       .  S
N375        N396   1.328       .  A
N376        N394   1.319       .  A
N376        N381   1.327       .  A
C377        N381   1.350       .  A
C377        C405   1.451       .  S
C377        C537   1.460       .  S
N378        C393   1.334       .  A
N378       Co400   2.070       .  S
C379        N407   1.336       .  A
C379        C382   1.451       .  S
C379        H413   1.081       .  S
C382        N403   1.348       .  A
C382        C489   1.457       .  S
N383        N389   1.319       .  A
N384        C410   1.338       .  A
N384        N386   1.320       .  A
N384       Co400   2.077       .  S
N385        C399   1.338       .  A
N386        N414   1.326       .  A
N386       Co404   2.085       .  S
H387        C410   1.082       .  S
H388        C405   1.082       .  S
N390       Co404   2.071       .  S
N391        N403   1.326       .  A
N391        N407   1.320       .  A
N391       Co400   2.084       .  S
C392        N396   1.351       .  A
C392        C406   1.455       .  S
C392        C601   1.469       .  S
C393        C412   1.450       .  S
C393        H397   1.081       .  S
N394        C405   1.336       .  A
N394       Co404   2.067       .  S
C398        N414   1.348       .  A
C398        C410   1.453       .  S
C398        C425   1.460       .  S
Co400      Cl411   2.446       .  S
N401        C412   1.349       .  A
C402        C585   1.463       .  S
Co404      Cl411   2.453       .  S
C412        C438   1.457       .  S
C415        C420   1.381       .  A
C415        C416   1.404       .  A
C415        O421   1.318       .  A
C416        C417   1.403       .  A
C416        H427   1.082       .  S
C417        C426   1.364       .  A
C417        C418   1.381       .  A
C418        C419   1.398       .  A
C418        O424   1.314       .  A
C419        C420   1.397       .  A
C419        H428   1.082       .  S
C420        C423   1.356       .  A
O421        C422   1.331       .  A
C422        C423   1.388       .  A
C423        H429   1.083       .  S
O424        C425   1.327       .  A
C425        C426   1.390       .  A
C426        H430   1.082       .  S
C431        C436   1.381       .  A
C431        C432   1.396       .  A
C431        O437   1.311       .  A
C432        C433   1.395       .  A
C432        H443   1.082       .  S
C433        C442   1.355       .  A
C433        C434   1.381       .  A
C434        C435   1.406       .  A
C434        O440   1.320       .  A
C435        C436   1.405       .  A
C435        H444   1.082       .  S
C436        C439   1.366       .  A
O437        C438   1.325       .  A
C438        C439   1.391       .  A
C439        H445   1.083       .  S
O440        C441   1.332       .  A
C441        C442   1.387       .  A
C442        H446   1.083       .  S
C447        C452   1.381       .  A
C447        C448   1.400       .  A
C447        O453   1.316       .  A
C448        C449   1.399       .  A
C448        H459   1.082       .  S
C449        C458   1.357   1_455  A
C449        C450   1.382       .  A
C450        C451   1.400       .  A
C450        O456   1.316   1_455  A
C451        C452   1.399       .  A
C451        H460   1.082       .  S
C452        C455   1.356       .  A
O453        C454   1.329       .  A
C454        C455   1.389       .  A
O456        C457   1.328       .  A
C457        C458   1.387       .  A
C458        H462   1.082       .  S
C463        C464   1.402       .  A
C463        O469   1.318       .  A
C464        C465   1.401       .  A
C464        H475   1.082       .  S
C465        C474   1.360       .  A
C466        C467   1.405       .  A
C466        O472   1.319       .  A
C467        C468   1.404       .  A
C467        H476   1.082       .  S
C468        C471   1.364       .  A
C470        C471   1.391       .  A
C471        H477   1.082       .  S
O472        C473   1.332       .  A
C474        H478   1.083       .  S
C479        C484   1.381       .  A
C479        C480   1.405       .  A
C479        O485   1.320       .  A
C480        C481   1.404       .  A
C480        H491   1.082       .  S
C481        C490   1.364       .  A
C481        C482   1.382       .  A
C482        C483   1.397       .  A
C482        O488   1.312       .  A
C483        C484   1.396       .  A
C483        H492   1.082       .  S
C484        C487   1.354       .  A
O485        C486   1.332       .  A
C486        C487   1.388       .  A
C487        H493   1.083       .  S
O488        C489   1.326       .  A
C489        C490   1.390       .  A
C490        H494   1.082       .  S
C495        C500   1.381       .  A
C495        C496   1.401       .  A
C495        O501   1.315       .  A
C496        C497   1.399       .  A
C496        H507   1.082       .  S
C497        C506   1.360       .  A
C497        C498   1.380       .  A
C498        C499   1.405       .  A
C498        O504   1.319       .  A
C499        C500   1.404       .  A
C499        H508   1.082       .  S
C500        C503   1.366       .  A
O501        C502   1.328       .  A
C502        C503   1.391       .  A
C503        H509   1.082       .  S
O504        C505   1.331       .  A
C505        C506   1.389       .  A
C506        H510   1.083       .  S
C511        C516   1.380   1_556  A
C511        C512   1.404       .  A
C511        O517   1.320       .  A
C512        C513   1.403       .  A
C512        H523   1.082       .  S
C513        C522   1.361       .  A
C513        C514   1.381   1_556  A
C515        H524   1.082       .  S
C518        C519   1.393       .  A
C519        H525   1.083       .  S
O520        C521   1.332       .  A
C522        H526   1.082       .  S
C527        C532   1.380       .  A
C527        C528   1.407       .  A
C527        O533   1.320       .  A
C528        C529   1.406       .  A
C528        H539   1.082       .  S
C529        C538   1.367       .  A
C529        C530   1.381       .  A
C530        C531   1.396       .  A
C530        O536   1.312       .  A
C531        C532   1.395       .  A
C531        H540   1.082       .  S
C532        C535   1.355       .  A
O533        C534   1.333       .  A
C534        C535   1.386       .  A
C535        H541   1.083       .  S
O536        C537   1.326       .  A
C537        C538   1.392       .  A
C538        H542   1.082       .  S
C543        C548   1.381       .  A
C543        C544   1.400       .  A
C543        O549   1.314       .  A
C544        C545   1.399       .  A
C544        H555   1.082       .  S
C545        C554   1.360       .  A
C545        C546   1.380       .  A
C546        C547   1.406       .  A
C546        O552   1.318       .  A
C547        C548   1.404       .  A
C547        H556   1.082       .  S
C548        C551   1.366       .  A
O549        C550   1.328       .  A
C550        C551   1.390       .  A
C551        H557   1.082       .  S
O552        C553   1.332       .  A
C553        C554   1.389       .  A
C554        H558   1.083       .  S
C559        C564   1.381       .  A
C559        C560   1.400       .  A
C559        O565   1.316       .  A
C560        C561   1.400       .  A
C560        H571   1.082       .  S
C561        C570   1.359       .  A
C561        C562   1.381       .  A
C562        C563   1.403       .  A
C563        C564   1.402       .  A
C564        C567   1.361       .  A
O565        C566   1.328       .  A
C566        C567   1.390       .  A
C569        C570   1.390       .  A
C570        H574   1.083       .  S
C575        C580   1.382       .  A
C575        C576   1.396       .  A
C575        O581   1.314       .  A
C576        C577   1.396       .  A
C576        H587   1.083       .  S
C577        C586   1.351       .  A
C577        C578   1.381       .  A
C578        C579   1.405       .  A
C578        O584   1.322       .  A
C579        C580   1.406       .  A
C579        H588   1.082       .  S
C580        C583   1.364       .  A
O581        C582   1.327       .  A
C582        C583   1.392       .  A
C583        H589   1.082       .  S
O584        C585   1.331       .  A
C585        C586   1.386       .  A
C586        H590   1.083       .  S
C591        C596   1.380       .  A
C591        C592   1.406       .  A
C591        O597   1.320       .  A
C592        C593   1.405       .  A
C592        H603   1.082       .  S
C593        C602   1.366       .  A
C593        C594   1.381       .  A
C594        C595   1.402       .  A
C594        O600   1.318       .  A
C595        C596   1.401       .  A
C595        H604   1.082       .  S
C596        C599   1.361       .  A
O597        C598   1.332       .  A
C598        C599   1.390       .  A
C599        H605   1.083       .  S
O600        C601   1.330       .  A
C601        C602   1.391       .  A
C602        H606   1.082       .  S
