geometry optimzed in LAMMPS
_audit_creation_date              2020-11-30 
_audit_creation_method            'lammps2cif' 
_symmetry_space_group_name_H-M    'P1' 
_symmetry_Int_Tables_number       1 
_symmetry_cell_setting            triclinic 
loop_ 
_symmetry_equiv_pos_as_xyz 
  x,y,z 
_cell_length_a                    45.78375054 
_cell_length_b                    45.81974599280417 
_cell_length_c                    45.760679021225876 
_cell_angle_alpha                 90.04713989620862 
_cell_angle_beta                  90.08019856595257 
_cell_angle_gamma                 90.03817962353902 
loop_ 
_atom_site_label 
_atom_site_type_symbol 
_atom_site_fract_x 
_atom_site_fract_y 
_atom_site_fract_z 
_atom_site_charge 
N1          N  0.55179619  0.49465911  0.03790445    -0.06100
N2          N  0.56872570  0.50295474  0.05979617    -0.58300
N3          N  0.55086515  0.46918321  0.96858052    -0.05800
N4          N  0.56690120  0.45955017  0.94655563    -0.60400
N5          N  0.55214538  0.49784241  0.97013894    -0.05400
N6          N  0.56910267  0.50825115  0.94920550    -0.58200
N7          N  0.55104479  0.46601564  0.03623825    -0.05100
N8          N  0.56752297  0.45427683  0.05688649    -0.60700
C9          C  0.57839077  0.47757479  0.07153737     0.96000
C10         C  0.57812952  0.48415680  0.93459047     0.95800
N11         N  0.47133660  0.42258478  0.96746561    -0.06300
N12         N  0.46082200  0.40524814  0.94679744    -0.58800
N13         N  0.50062734  0.41994341  0.03422770    -0.04400
N14         N  0.51092605  0.40252725  0.05469648    -0.60100
N15         N  0.47187777  0.42084251  0.03511108    -0.06300
N16         N  0.46205307  0.40392292  0.05637888    -0.59100
N17         N  0.50009705  0.42203099  0.96725041    -0.04100
N18         N  0.50966306  0.40429694  0.94663813    -0.60200
Mn19       Mn  0.52615872  0.44374696  0.00140985     1.18400
C20         C  0.48502105  0.39429065  0.93378599     0.98100
C21         C  0.48674509  0.39286001  0.06842075     0.98800
N22         N  0.50481051  0.54818259  0.97249314    -0.06400
N23         N  0.51508582  0.56538038  0.95169955    -0.62700
N24         N  0.47591166  0.54637482  0.03984344    -0.05200
N25         N  0.46634814  0.56297779  0.06141682    -0.63300
N26         N  0.50464360  0.54524715  0.04004059    -0.05900
N27         N  0.51513056  0.56097488  0.06190116    -0.62900
N28         N  0.47611035  0.54923100  0.97291176    -0.04800
N29         N  0.46634252  0.56728450  0.95272088    -0.63600
Mn30       Mn  0.52904659  0.52209778  0.00519716     1.10700
C31         C  0.49078915  0.57714179  0.93946900     0.99400
C32         C  0.49100798  0.57186465  0.07513392     0.99400
N33         N  0.42342895  0.47137633  0.03659699    -0.05900
N34         N  0.40415059  0.46186110  0.05594482    -0.61300
N35         N  0.42589641  0.50224165  0.97020585    -0.05200
N36         N  0.41036655  0.51390086  0.94886947    -0.58000
N37         N  0.42459816  0.47354477  0.96902803    -0.06500
N38         N  0.40817539  0.46510665  0.94676327    -0.60800
N39         N  0.42469543  0.50008306  0.03728143    -0.05500
N40         N  0.40636041  0.51062631  0.05689344    -0.58000
Mn41       Mn  0.44710307  0.44638986  0.00214373     1.20200
Mn42       Mn  0.45020061  0.52500094  0.00512236     1.10100
Cl43       Cl  0.48810538  0.48429321  0.00347711    -0.86000
C44         C  0.39386727  0.48660500  0.06856359     0.96400
C45         C  0.39967745  0.49052538  0.93433131     0.96200
C46         C  0.21882770  0.50066378  0.19899404     0.03100
C47         C  0.19727329  0.50639262  0.17804733    -0.13000
C48         C  0.16875916  0.51320672  0.18643307     0.00600
C49         C  0.16157257  0.51366174  0.21613325    -0.11600
C50         C  0.18236931  0.50638733  0.23741116     0.03100
C51         C  0.21133545  0.50025993  0.22888404    -0.11000
H52         H  0.20285359  0.50586770  0.15502413     0.08700
H53         H  0.13936359  0.51861577  0.22268161     0.06200
H54         H  0.22763045  0.49482661  0.24516677     0.06100
C55         C  0.74089095  0.49985656  0.21299722     0.03100
C56         C  0.75837680  0.51637308  0.19408244    -0.13000
C57         C  0.78548001  0.52711713  0.20318189     0.00600
C58         C  0.79488522  0.52204999  0.23178423    -0.11600
C59         C  0.77789445  0.50531397  0.25100609     0.03100
C60         C  0.75068957  0.49422558  0.24165612    -0.11000
H61         H  0.75131212  0.51993720  0.17172953     0.08700
H62         H  0.81618012  0.52987409  0.23864845     0.06200
H63         H  0.73785703  0.48059266  0.25608979     0.06100
C64         C  0.19794213  0.51648546  0.75976516     0.03100
C65         C  0.17942461  0.53068121  0.77942163    -0.13000
C66         C  0.19007985  0.54218282  0.80561357     0.00600
C67         C  0.21971121  0.53906639  0.81238588    -0.11600
C68         C  0.23849462  0.52374493  0.79357803     0.03100
C69         C  0.22765673  0.51292819  0.76678535    -0.11000
H70         H  0.15633569  0.53251164  0.77437058     0.08700
H71         H  0.22792014  0.54743333  0.83298959     0.06200
H72         H  0.24191548  0.50111731  0.75207613     0.06100
C73         C  0.75629842  0.52184966  0.73352095     0.03100
C74         C  0.73035098  0.51024514  0.74574120    -0.13000
C75         C  0.72429599  0.51453345  0.77571672     0.00600
C76         C  0.74422092  0.52990789  0.79305738    -0.11600
C77         C  0.76928119  0.54233845  0.78095380     0.03100
C78         C  0.77460631  0.53908028  0.75110441    -0.11000
H79         H  0.71576182  0.49714601  0.73247916     0.08700
H80         H  0.74036864  0.53177083  0.81636991     0.06200
H81         H  0.79446882  0.54817403  0.74198152     0.06100
N82         N  0.96890907  0.59592463  0.94225475    -0.36600
N83         N  0.92219115  0.59205890  0.98562703    -0.57200
N84         N  0.96431182  0.58039804  0.03072153    -0.36600
N85         N  0.01082830  0.58170609  0.98745044    -0.57200
C86         C  0.94528689  0.59343481  0.92460114     0.27000
C87         C  0.99291320  0.59130451  0.92566665     0.27000
C88         C  0.93896768  0.57374563  0.04420783     0.27000
C89         C  0.98568628  0.56580585  0.04483457     0.27000
C90         C  0.90684706  0.60109093  0.96225313     0.35600
C91         C  0.90487872  0.59621486  0.00904526     0.35600
C92         C  0.02977983  0.58828960  0.96585857     0.35600
C93         C  0.02679629  0.57881958  0.01210541     0.35600
C94         C  0.95441559  0.58797646  0.89624728    -0.21900
C95         C  0.98442203  0.58735507  0.89678497    -0.21900
C96         C  0.94427321  0.55494385  0.06734036    -0.21900
C97         C  0.97383670  0.54979295  0.06764165    -0.21900
C98         C  0.87949494  0.61086974  0.97074819    -0.23000
C99         C  0.87838338  0.60813269  0.00060949    -0.23000
C100        C  0.05804153  0.58913736  0.97692040    -0.23000
C101        C  0.05606788  0.58364983  0.00627271    -0.23000
C102        C  0.91575487  0.59682878  0.93318453    -0.18300
C103        C  0.02221308  0.59049191  0.93590944    -0.18300
C104        C  0.01577655  0.56821478  0.03885117    -0.18300
C105        C  0.91144269  0.58553439  0.03706028    -0.18300
H106        H  0.94092376  0.58514673  0.87701460     0.14600
H107        H  0.99827527  0.58386165  0.87798032     0.14600
H108        H  0.92849407  0.54596044  0.08246288     0.14600
H109        H  0.98536128  0.53616886  0.08314562     0.14600
H110        H  0.86198377  0.61844659  0.95676971     0.12900
H111        H  0.85975597  0.61293145  0.01432906     0.12900
H112        H  0.07820046  0.59257586  0.96514382     0.12900
H113        H  0.07425628  0.58209678  0.02132781     0.12900
H114        H  0.96871196  0.60112314  0.96428773     0.26100
H115        H  0.96706016  0.59557296  0.01407691     0.26100
N116        N  0.02170809  0.55020044  0.52387946    -0.06100
N117        N  0.04236009  0.56703665  0.53501262    -0.58300
N118        N  0.95491008  0.55155476  0.49372104    -0.05800
N119        N  0.93360367  0.56868247  0.48438464    -0.60400
N120        N  0.95460897  0.55018106  0.52241295    -0.05400
N121        N  0.93308419  0.56588104  0.53315246    -0.58200
N122        N  0.02239415  0.55108816  0.49512715    -0.05100
N123        N  0.04367913  0.56840537  0.48613486    -0.60700
C124        C  0.05603843  0.57801956  0.51124726     0.96000
C125        C  0.92015827  0.57740152  0.50932231     0.95800
N126        N  0.95593865  0.47529685  0.44202932    -0.06300
N127        N  0.93559197  0.46566077  0.42390999    -0.58800
N128        N  0.02314723  0.50393491  0.44476057    -0.04400
N129        N  0.04358438  0.51466139  0.42745612    -0.60100
N130        N  0.02333083  0.47519405  0.44396928    -0.06300
N131        N  0.04394668  0.46587418  0.42596494    -0.59100
N132        N  0.95585667  0.50402435  0.44284405    -0.04100
N133        N  0.93544041  0.51444974  0.42524040    -0.60200
Mn134      Mn  0.98902168  0.52831680  0.46853001     1.18400
C135        C  0.92286805  0.49027651  0.41363760     0.98100
C136        C  0.05669029  0.49074070  0.41620129     0.98800
N137        N  0.95229205  0.50138789  0.56935415    -0.06400
N138        N  0.92968207  0.51191154  0.58379887    -0.62700
N139        N  0.01912535  0.47178052  0.57168612    -0.05200
N140        N  0.03920239  0.46150331  0.58981168    -0.63300
N141        N  0.01955623  0.50048298  0.57174349    -0.05900
N142        N  0.03976339  0.51032786  0.58980434    -0.62900
N143        N  0.95143800  0.47269685  0.56878765    -0.04800
N144        N  0.92816393  0.46305571  0.58293909    -0.63600
Mn145      Mn  0.98720298  0.52605925  0.54735905     1.10700
C146        C  0.91486453  0.48781918  0.59211556     0.99400
C147        C  0.05194732  0.48586484  0.60088734     0.99400
N148        N  0.02147718  0.42539257  0.49256854    -0.05900
N149        N  0.04355398  0.40933826  0.48318305    -0.61300
N150        N  0.95263671  0.42511743  0.51885369    -0.05200
N151        N  0.93005654  0.40952949  0.52786186    -0.58000
N152        N  0.95364440  0.42563271  0.49008500    -0.06500
N153        N  0.93169870  0.41037934  0.47899074    -0.60800
N154        N  0.02011679  0.42467296  0.52131277    -0.05500
N155        N  0.04114286  0.40815444  0.53203298    -0.58000
Mn156      Mn  0.98870560  0.44962148  0.46655093     1.20200
Mn157      Mn  0.98580692  0.44778664  0.54576911     1.10100
Cl158      Cl  0.98774902  0.48791467  0.50699980    -0.86000
C159        C  0.05563056  0.39884767  0.50806997     0.96400
C160        C  0.91713544  0.40059568  0.50280155     0.96200
C161        C  0.51220079  0.77524208  0.24886861     0.03100
C162        C  0.53183017  0.78906379  0.22983441    -0.13000
C163        C  0.54380294  0.77413357  0.20589009     0.00600
C164        C  0.53576744  0.74508158  0.20103536    -0.11600
C165        C  0.51452041  0.73156653  0.21843829     0.03100
C166        C  0.50302352  0.74648092  0.24280754    -0.11000
H167        H  0.53778470  0.81164664  0.23371319     0.08700
H168        H  0.54490773  0.73336279  0.18259785     0.06200
H169        H  0.48679105  0.73608375  0.25649533     0.06100
C170        C  0.52025265  0.23139979  0.20966737     0.03100
C171        C  0.53658983  0.21253978  0.19192462    -0.13000
C172        C  0.54241720  0.18393986  0.20083285     0.00600
C173        C  0.53279138  0.17464366  0.22832266    -0.11600
C174        C  0.51770874  0.19366601  0.24696286     0.03100
C175        C  0.51107855  0.22210320  0.23750691    -0.11000
H176        H  0.54376644  0.21980541  0.17055920     0.08700
H177        H  0.53697353  0.15240530  0.23525775     0.06200
H178        H  0.49850563  0.23657804  0.25134983     0.06100
C179        C  0.51600597  0.22096530  0.80585466     0.03100
C180        C  0.53012131  0.20201899  0.82535181    -0.13000
C181        C  0.53490673  0.17276449  0.81792502     0.00600
C182        C  0.52666637  0.16293320  0.79013561    -0.11600
C183        C  0.51430873  0.18207962  0.76973950     0.03100
C184        C  0.50849307  0.21111697  0.77771273    -0.11000
H185        H  0.53645394  0.20986781  0.84680355     0.08700
H186        H  0.52999985  0.14025130  0.78423621     0.06200
H187        H  0.49799833  0.22574301  0.76236572     0.06100
C188        C  0.50911383  0.77632783  0.75809695     0.03100
C189        C  0.52581691  0.79369733  0.77723667    -0.13000
C190        C  0.52988045  0.78543842  0.80653184     0.00600
C191        C  0.51810061  0.75895214  0.81605443    -0.11600
C192        C  0.50321409  0.74032891  0.79686424     0.03100
C193        C  0.49827756  0.74919213  0.76781192    -0.11000
H194        H  0.53444874  0.81436995  0.76963980     0.08700
H195        H  0.52051559  0.75266087  0.83877383     0.06200
H196        H  0.48554388  0.73556325  0.75322714     0.06100
N197        N  0.61413455  0.01689741  0.01611294    -0.36600
N198        N  0.61136512  0.97089872  0.97165335    -0.57200
N199        N  0.62270409  0.92668327  0.01567113    -0.36600
N200        N  0.62273455  0.97272917  0.06054578    -0.57200
C201        C  0.60227145  0.03141976  0.99328007     0.27000
C202        C  0.60756542  0.03217553  0.04058396     0.27000
C203        C  0.61478507  0.90937737  0.99292402     0.27000
C204        C  0.62066344  0.91042218  0.04027865     0.27000
C205        C  0.61097922  0.99462537  0.95415744     0.35600
C206        C  0.61355059  0.94742528  0.95387784     0.35600
C207        C  0.62599958  0.99678601  0.07737391     0.35600
C208        C  0.63048212  0.94966693  0.07717774     0.35600
C209        C  0.58848071  0.05644871  0.00324053    -0.21900
C210        C  0.59175018  0.05690056  0.03307173    -0.21900
C211        C  0.60922814  0.88142546  0.00309916    -0.21900
C212        C  0.61242782  0.88218935  0.03288725    -0.21900
C213        C  0.61324285  0.98624058  0.92515051    -0.23000
C214        C  0.61418556  0.95638245  0.92493007    -0.23000
C215        C  0.63610265  0.98902335  0.10483812    -0.23000
C216        C  0.63879946  0.95912148  0.10476268    -0.23000
C217        C  0.60425017  0.02322253  0.96355007    -0.18300
C218        C  0.61610541  0.02492853  0.06945963    -0.18300
C219        C  0.62585673  0.92013595  0.06931795    -0.18300
C220        C  0.61187321  0.91803469  0.96325452    -0.18300
H221        H  0.57706718  0.07264825  0.99036214     0.14600
H222        H  0.58330787  0.07355088  0.04756500     0.14600
H223        H  0.60280614  0.86247858  0.99050374     0.14600
H224        H  0.60881896  0.86391126  0.04739589     0.14600
H225        H  0.61265807  0.00009645  0.90601413     0.12900
H226        H  0.61461150  0.94297014  0.90549491     0.12900
H227        H  0.63982985  0.00327710  0.12334645     0.12900
H228        H  0.64505915  0.94573068  0.12321037     0.12900
H229        H  0.62706222  0.99832923  0.01481141     0.26100
H230        H  0.62927440  0.94828906  0.01457354     0.26100
C231        C  0.19505005  0.74529086  0.53124022     0.03100
C232        C  0.17660033  0.76500606  0.54566397    -0.13000
C233        C  0.18440669  0.79437344  0.54903281     0.00600
C234        C  0.21177298  0.80367402  0.53899975    -0.11600
C235        C  0.23150468  0.78388559  0.52645842     0.03100
C236        C  0.22291778  0.75463836  0.52198663    -0.11000
H237        H  0.15552881  0.75757638  0.55349845     0.08700
H238        H  0.21799165  0.82639676  0.54131867     0.06200
H239        H  0.23766229  0.73941895  0.51151035     0.06100
C240        C  0.73841864  0.20187040  0.51647941     0.03100
C241        C  0.74491394  0.23130039  0.51027206    -0.13000
C242        C  0.77200598  0.24317772  0.51895385     0.00600
C243        C  0.79180739  0.22572303  0.53464853    -0.11600
C244        C  0.78596353  0.19616451  0.53998363     0.03100
C245        C  0.75936103  0.18440297  0.53039913    -0.11000
H246        H  0.72911616  0.24475983  0.49892986     0.08700
H247        H  0.81223517  0.23510194  0.54213975     0.06200
H248        H  0.75463760  0.16153197  0.53424111     0.06100
C249        C  0.19879011  0.23993293  0.53872324     0.03100
C250        C  0.22541388  0.22811737  0.52875481    -0.13000
C251        C  0.23204268  0.19861052  0.53434247     0.00600
C252        C  0.21169893  0.18108748  0.54896357    -0.11600
C253        C  0.18558343  0.19283854  0.55955484     0.03100
C254        C  0.17977783  0.22248404  0.55518728    -0.11000
H255        H  0.24043041  0.24148513  0.51631475     0.08700
H256        H  0.21622754  0.15805489  0.55196353     0.06200
H257        H  0.15943476  0.23163919  0.56310998     0.06100
C258        C  0.74475022  0.77966796  0.52367711     0.03100
C259        C  0.76292825  0.79732591  0.54116045    -0.13000
C260        C  0.78809994  0.78593474  0.55460555     0.00600
C261        C  0.79452514  0.75628384  0.55066545    -0.11600
C262        C  0.77824675  0.73914409  0.53114918     0.03100
C263        C  0.75309842  0.75070546  0.51791513    -0.11000
H264        H  0.75755524  0.82018223  0.54397136     0.08700
H265        H  0.81349915  0.74690647  0.56127804     0.06200
H266        H  0.74039486  0.73742775  0.50297236     0.06100
N267        N  0.93800355  0.99290821  0.61418289    -0.36600
N268        N  0.98162047  0.03887186  0.61720736    -0.57200
N269        N  0.02658346  0.99392738  0.61776499    -0.36600
N270        N  0.98320717  0.94801723  0.61822055    -0.57200
C271        C  0.92107475  0.01664546  0.61874305     0.27000
C272        C  0.92180075  0.96906016  0.62039217     0.27000
C273        C  0.04214542  0.01787432  0.62495718     0.27000
C274        C  0.04308419  0.97045793  0.62438300     0.27000
C275        C  0.95831024  0.05454084  0.60827846     0.35600
C276        C  0.00544536  0.05505897  0.61094823     0.35600
C277        C  0.95986012  0.93135488  0.61129060     0.35600
C278        C  0.00718165  0.93213072  0.61161070     0.35600
C279        C  0.89366064  0.00782949  0.62804145    -0.21900
C280        C  0.89412403  0.97774225  0.62912704    -0.21900
C281        C  0.06885099  0.00957322  0.63663697    -0.21900
C282        C  0.06946749  0.97951639  0.63620533    -0.21900
C283        C  0.96733386  0.08103610  0.59674413    -0.23000
C284        C  0.99728306  0.08137333  0.59848115    -0.23000
C285        C  0.96900788  0.90446493  0.60082999    -0.23000
C286        C  0.99904695  0.90503123  0.60084592    -0.23000
C287        C  0.92896577  0.04566381  0.61168609    -0.18300
C288        C  0.93042996  0.93981566  0.61530603    -0.18300
C289        C  0.03622851  0.94151813  0.61644178    -0.18300
C290        C  0.03437016  0.04667673  0.61742174    -0.18300
H291        H  0.87505989  0.02161736  0.63272799     0.14600
H292        H  0.87590488  0.96380345  0.63480681     0.14600
H293        H  0.08649278  0.02373143  0.64355081     0.14600
H294        H  0.08762813  0.96589585  0.64277322     0.14600
H295        H  0.95378122  0.09830214  0.58799964     0.12900
H296        H  0.01141742  0.09891465  0.59134833     0.12900
H297        H  0.95545724  0.88641548  0.59376662     0.12900
H298        H  0.01323294  0.88746716  0.59390118     0.12900
H299        H  0.95879395  0.99288963  0.60473971     0.26100
H300        H  0.00698904  0.99366749  0.60598164     0.26100
N301        N  0.54999529  0.94971771  0.51604972    -0.06100
N302        N  0.56618354  0.92785222  0.52550539    -0.58300
N303        N  0.55299231  0.01838510  0.48946945    -0.05800
N304        N  0.56893825  0.04055185  0.48003652    -0.60400
N305        N  0.55314174  0.01751120  0.51818844    -0.05400
N306        N  0.56909350  0.03909769  0.52885467    -0.58200
N307        N  0.55020845  0.95065169  0.48734740    -0.05100
N308        N  0.56691269  0.92957073  0.47675737    -0.60700
C309        C  0.57671167  0.91537216  0.50086183     0.96000
C310        C  0.57889137  0.05334146  0.50485506     0.95800
N311        N  0.47554242  0.02392919  0.44138728    -0.06300
N312        N  0.46736165  0.04590701  0.42443035    -0.58800
N313        N  0.50038448  0.95477155  0.43933237    -0.04400
N314        N  0.50953383  0.93435287  0.42117892    -0.60100
N315        N  0.47166793  0.95650460  0.43880562    -0.06300
N316        N  0.46090593  0.93734420  0.41990830    -0.59100
N317        N  0.50424330  0.02167519  0.44135345    -0.04100
N318        N  0.51605439  0.04185339  0.42454885    -0.60200
Mn319      Mn  0.52750792  0.98624147  0.46385092     1.18400
C320        C  0.49294512  0.05692415  0.41422604     0.98100
C321        C  0.48482045  0.92354965  0.40905608     0.98800
N322        N  0.50590216  0.01776672  0.56763172    -0.06400
N323        N  0.51758540  0.03726520  0.58537944    -0.62700
N324        N  0.47357703  0.95213545  0.56629191    -0.05200
N325        N  0.46287627  0.93123025  0.58316294    -0.63300
N326        N  0.50226149  0.95062276  0.56554077    -0.05900
N327        N  0.51163897  0.92877476  0.58186905    -0.62900
N328        N  0.47724825  0.01956936  0.56811506    -0.04800
N329        N  0.46879057  0.04037694  0.58621380    -0.63600
Mn330      Mn  0.52840695  0.98379812  0.54231401     1.10700
C331        C  0.49420808  0.05130843  0.59664390     0.99400
C332        C  0.48688873  0.91670117  0.59261951     0.99400
N333        N  0.42343292  0.95720489  0.48970466    -0.05900
N334        N  0.40566673  0.93648157  0.48010545    -0.61300
N335        N  0.42734367  0.02368868  0.52043816    -0.05200
N336        N  0.41035163  0.04391643  0.53199491    -0.58000
N337        N  0.42608384  0.02468459  0.49168572    -0.06500
N338        N  0.40789793  0.04559114  0.48331209    -0.60800
N339        N  0.42431932  0.95687621  0.51849202    -0.05500
N340        N  0.40727308  0.93622358  0.52902862    -0.58000
Mn341      Mn  0.44837661  0.99070377  0.46462127     1.20200
Mn342      Mn  0.45013624  0.98816025  0.54383195     1.10100
Cl343      Cl  0.48845253  0.98721237  0.50350977    -0.86000
C344        C  0.39588996  0.92362836  0.50494668     0.96400
C345        C  0.39829144  0.05756781  0.50872284     0.96200
C346        C  0.71739154  0.79234531  0.51144927     0.01300
C347        C  0.68980346  0.78261965  0.52132965     0.04200
C348        C  0.66452783  0.79922800  0.51536906    -0.11900
C349        C  0.66677689  0.82569577  0.49984634     0.23400
C350        C  0.69376829  0.83368405  0.48739448    -0.12500
C351        C  0.71892449  0.81688964  0.49290337     0.04900
C352        C  0.64242808  0.84731033  0.50054028     0.27300
C353        C  0.61998334  0.84703957  0.47944649    -0.13200
C354        C  0.59801905  0.86874854  0.47984864     0.05400
C355        C  0.59907335  0.89161878  0.50072045    -0.09100
C356        C  0.62193732  0.89180222  0.52165503     0.06200
C357        C  0.64277771  0.86924278  0.52209897    -0.13500
Br358      Br  0.69651156  0.86878333  0.46433359    -0.05600
Br359      Br  0.68672510  0.74788849  0.54494628     0.00000
Br360      Br  0.56598281  0.86611170  0.45249542     0.00500
Br361      Br  0.67219742  0.86826430  0.55245190    -0.03900
Br362      Br  0.75572431  0.82774603  0.47546705     0.00600
Br363      Br  0.62702878  0.78685291  0.52996597    -0.03200
Br364      Br  0.61956765  0.81684391  0.45007332    -0.04100
Br365      Br  0.62698057  0.92407301  0.54845616    -0.00100
C366        C  0.80875172  0.80553534  0.57075343     0.01300
C367        C  0.83886465  0.80626456  0.56329349     0.04200
C368        C  0.85770140  0.82629246  0.57701831    -0.11900
C369        C  0.84640017  0.84772145  0.59585331     0.23400
C370        C  0.81689161  0.84655980  0.60427412    -0.12500
C371        C  0.79836005  0.82483296  0.59264731     0.04900
C372        C  0.86496063  0.87330260  0.60321889     0.27300
C373        C  0.88121015  0.87420916  0.62937914    -0.13200
C374        C  0.90210624  0.89640419  0.63376878     0.05400
C375        C  0.90717578  0.91733524  0.61174464    -0.09100
C376        C  0.89050023  0.91665737  0.58583419     0.06200
C377        C  0.86887639  0.89523940  0.58199807    -0.13500
Br378      Br  0.80184852  0.87540375  0.63100687    -0.05600
Br379      Br  0.85466400  0.78265510  0.53204448     0.00000
Br380      Br  0.92429055  0.89787523  0.66958231     0.00500
Br381      Br  0.84474393  0.89554911  0.54735452    -0.03900
Br382      Br  0.75903581  0.82135582  0.60745285     0.00600
Br383      Br  0.89922007  0.82530075  0.56938431    -0.03200
Br384      Br  0.87521547  0.84467849  0.65872577    -0.04100
Br385      Br  0.89871003  0.94378991  0.55464727    -0.00100
C386        C  0.37523275  0.08068597  0.51113203     0.01300
C387        C  0.35228099  0.07791728  0.53176108     0.04200
C388        C  0.33060484  0.09971584  0.53402974    -0.11900
C389        C  0.33185426  0.12481695  0.51632169     0.23400
C390        C  0.35484852  0.12801526  0.49624050    -0.12500
C391        C  0.37597784  0.10580220  0.49314894     0.04900
C392        C  0.30817121  0.14711976  0.51802088     0.27300
C393        C  0.28408083  0.14543238  0.49883284    -0.13200
C394        C  0.26006686  0.16428932  0.50249544     0.05400
C395        C  0.25995803  0.18491242  0.52538369    -0.09100
C396        C  0.28475170  0.18779081  0.54345232     0.06200
C397        C  0.30878088  0.16889519  0.53983451    -0.13500
Br398      Br  0.35740413  0.16326051  0.47328072    -0.05600
Br399      Br  0.34882476  0.04349497  0.55585898     0.00000
Br400      Br  0.22654601  0.16106319  0.47707997     0.00500
Br401      Br  0.34183579  0.17160334  0.56583282    -0.03900
Br402      Br  0.40597237  0.11046117  0.46434254     0.00600
Br403      Br  0.29859117  0.09511611  0.56110169    -0.03200
Br404      Br  0.28325213  0.11599747  0.46868323    -0.04100
Br405      Br  0.28476820  0.21625706  0.57453898    -0.00100
C406        C  0.05827805  0.06808890  0.61306491     0.01300
C407        C  0.06246284  0.09124337  0.63293028     0.04200
C408        C  0.08452564  0.11197772  0.62778092    -0.11900
C409        C  0.10295513  0.10891687  0.60335836     0.23400
C410        C  0.09983129  0.08484832  0.58450703    -0.12500
C411        C  0.07682131  0.06515128  0.58866643     0.04900
C412        C  0.12315655  0.13260083  0.59502612     0.27300
C413        C  0.11465398  0.15208454  0.57285719    -0.13200
C414        C  0.13510164  0.17147471  0.56089302     0.05400
C415        C  0.16345360  0.17347382  0.57310975    -0.09100
C416        C  0.17105684  0.15551928  0.59709190     0.06200
C417        C  0.15136239  0.13420058  0.60709796    -0.13500
Br418      Br  0.12680427  0.07937677  0.55253789    -0.05600
Br419      Br  0.03754237  0.09483925  0.66666989     0.00000
Br420      Br  0.12464045  0.19274178  0.52592138     0.00500
Br421      Br  0.16332460  0.10620164  0.63620616    -0.03900
Br422      Br  0.06924734  0.03573800  0.55948319     0.00600
Br423      Br  0.08906632  0.14501730  0.65349003    -0.03200
Br424      Br  0.07502496  0.15129687  0.55821694    -0.04100
Br425      Br  0.20807281  0.16037854  0.61679464    -0.00100
C426        C  0.59922056  0.07881188  0.50567056     0.01300
C427        C  0.59367655  0.10403381  0.48866089     0.04200
C428        C  0.61339946  0.12779356  0.48917518    -0.11900
C429        C  0.63922856  0.12621052  0.50589122     0.23400
C430        C  0.64478557  0.10113711  0.52283351    -0.12500
C431        C  0.62468131  0.07782519  0.52321671     0.04900
C432        C  0.66128190  0.15025079  0.50526578     0.27300
C433        C  0.68263280  0.15094204  0.48305985    -0.13200
C434        C  0.70658132  0.17020650  0.48520904     0.05400
C435        C  0.70963088  0.18848258  0.50980835    -0.09100
C436        C  0.68740994  0.18905264  0.53111508     0.06200
C437        C  0.66312401  0.17024477  0.52867205    -0.13500
Br438      Br  0.68075421  0.09839315  0.54481252    -0.05600
Br439      Br  0.55856618  0.10677577  0.46541110     0.00000
Br440      Br  0.73634168  0.17039217  0.45544165     0.00500
Br441      Br  0.63328778  0.17038535  0.55837515    -0.03900
Br442      Br  0.63325742  0.04399957  0.54687805     0.00600
Br443      Br  0.60516871  0.16271393  0.46714464    -0.03200
Br444      Br  0.68027006  0.12378096  0.45092797    -0.04100
Br445      Br  0.69161980  0.21388636  0.56492934    -0.00100
C446        C  0.80774662  0.17712860  0.55494735     0.01300
C447        C  0.79955208  0.16064732  0.57979893     0.04200
C448        C  0.81859328  0.13936593  0.59121222    -0.11900
C449        C  0.84677924  0.13602300  0.57941116     0.23400
C450        C  0.85611610  0.15455513  0.55673458    -0.12500
C451        C  0.83635390  0.17408949  0.54362015     0.04900
C452        C  0.86603725  0.11182872  0.58925799     0.27300
C453        C  0.88204961  0.11413825  0.61548763    -0.13200
C454        C  0.90125743  0.09162070  0.62383201     0.05400
C455        C  0.90550296  0.06731895  0.60532396    -0.09100
C456        C  0.88938051  0.06502621  0.57912136     0.06200
C457        C  0.86931959  0.08693006  0.57141530    -0.13500
Br458      Br  0.89610026  0.15269287  0.54346597    -0.05600
Br459      Br  0.76265678  0.16767798  0.59898828     0.00000
Br460      Br  0.92222987  0.09427184  0.66032903     0.00500
Br461      Br  0.84695164  0.08333843  0.53577545    -0.03900
Br462      Br  0.84818117  0.19440296  0.50858543     0.00600
Br463      Br  0.80581068  0.11410157  0.62241839    -0.03200
Br464      Br  0.87878034  0.14888022  0.63908923    -0.04100
Br465      Br  0.89618549  0.03286722  0.55267927    -0.00100
C466        C  0.26115315  0.79479436  0.51915528     0.01300
C467        C  0.26625863  0.80827305  0.49195388     0.04200
C468        C  0.29113760  0.82595736  0.48793779    -0.11900
C469        C  0.31098658  0.83024303  0.51110832     0.23400
C470        C  0.30718352  0.81484189  0.53749056    -0.12500
C471        C  0.28226767  0.79722074  0.54152564     0.04900
C472        C  0.33312203  0.85397246  0.50924336     0.27300
C473        C  0.36187500  0.84825078  0.49986209    -0.13200
C474        C  0.38255558  0.87103941  0.49876069     0.05400
C475        C  0.37430482  0.89972533  0.50610131    -0.09100
C476        C  0.34571798  0.90535879  0.51597919     0.06200
C477        C  0.32509105  0.88261729  0.51720030    -0.13500
Br478      Br  0.33503600  0.81972582  0.56880288    -0.05600
Br479      Br  0.23795769  0.80429865  0.46102039     0.00000
Br480      Br  0.42276073  0.86273096  0.48952201     0.00500
Br481      Br  0.28550029  0.89072040  0.52924970    -0.03900
Br482      Br  0.27579787  0.77812747  0.57850984     0.00600
Br483      Br  0.29701246  0.84634494  0.45155750    -0.03200
Br484      Br  0.37269086  0.80935174  0.48815282    -0.04100
Br485      Br  0.33488496  0.94419140  0.52825274    -0.00100
C486        C  0.16355169  0.81547574  0.56230017     0.01300
C487        C  0.17195282  0.83284167  0.58652372     0.04200
C488        C  0.15278997  0.85421502  0.59753946    -0.11900
C489        C  0.12429854  0.85656799  0.58620743     0.23400
C490        C  0.11519100  0.83798416  0.56345609    -0.12500
C491        C  0.13509156  0.81854580  0.55056533     0.04900
C492        C  0.10430018  0.87989593  0.59636398     0.27300
C493        C  0.08708545  0.87597501  0.62157217    -0.13200
C494        C  0.06578697  0.89684666  0.62904612     0.05400
C495        C  0.06079499  0.92099008  0.61061577    -0.09100
C496        C  0.07857216  0.92515483  0.58575265     0.06200
C497        C  0.10058137  0.90494850  0.57897855    -0.13500
Br498      Br  0.07530477  0.83967852  0.54969318    -0.05600
Br499      Br  0.20903760  0.82671613  0.60571356     0.00000
Br500      Br  0.04325862  0.89236671  0.66433443     0.00500
Br501      Br  0.12487842  0.91072958  0.54495608    -0.03900
Br502      Br  0.12363400  0.79820956  0.51533506     0.00600
Br503      Br  0.16573416  0.88096123  0.62746679    -0.03200
Br504      Br  0.09165477  0.84123552  0.64484581    -0.04100
Br505      Br  0.07174322  0.95746732  0.55969545    -0.00100
C506        C  0.50049982  0.78886559  0.72938116     0.01300
C507        C  0.51970392  0.78776522  0.70535209     0.04200
C508        C  0.51438716  0.80518897  0.68045807    -0.11900
C509        C  0.49013590  0.82419019  0.67971135     0.23400
C510        C  0.46978395  0.82356533  0.70280914    -0.12500
C511        C  0.47488408  0.80585749  0.72748286     0.04900
C512        C  0.48849488  0.84772200  0.65714875     0.27300
C513        C  0.50353456  0.87413932  0.66206603    -0.13200
C514        C  0.50250629  0.89672911  0.64122441     0.05400
C515        C  0.48663313  0.89308792  0.61497673    -0.09100
C516        C  0.47114364  0.86679954  0.61021531     0.06200
C517        C  0.47208171  0.84418931  0.63125989    -0.13500
Br518      Br  0.43591875  0.84850909  0.70144619    -0.05600
Br519      Br  0.55398690  0.76347067  0.70729483     0.00000
Br520      Br  0.52170725  0.93333913  0.64960904     0.00500
Br521      Br  0.45120246  0.80823352  0.62468282    -0.03900
Br522      Br  0.44774669  0.80629318  0.75970691     0.00600
Br523      Br  0.54110185  0.80441531  0.64794133    -0.03200
Br524      Br  0.52557092  0.87936092  0.69772588    -0.04100
Br525      Br  0.44963204  0.86124599  0.57436615    -0.00100
C526        C  0.54497086  0.80483131  0.82799099     0.01300
C527        C  0.56780955  0.79376831  0.84573879     0.04200
C528        C  0.57919238  0.81071993  0.86878374    -0.11900
C529        C  0.57037702  0.83997328  0.87222780     0.23400
C530        C  0.54909124  0.85172026  0.85327351    -0.12500
C531        C  0.53516053  0.83375893  0.83252855     0.04900
C532        C  0.58209060  0.85799339  0.89671015     0.27300
C533        C  0.56367941  0.86550299  0.92021622    -0.13200
C534        C  0.57325661  0.88541199  0.94156406     0.05400
C535        C  0.60235784  0.89575204  0.94125478    -0.09100
C536        C  0.62158501  0.88613945  0.91916192     0.06200
C537        C  0.61113217  0.86837801  0.89624613    -0.13500
Br538      Br  0.53861840  0.89247056  0.85610103    -0.05600
Br539      Br  0.58427342  0.75562784  0.83838288     0.00000
Br540      Br  0.54590972  0.89933975  0.97052607     0.00500
Br541      Br  0.63621435  0.85933444  0.86362121    -0.03900
Br542      Br  0.50059749  0.84816860  0.81304712     0.00600
Br543      Br  0.60562369  0.79333142  0.89669542    -0.03200
Br544      Br  0.52521292  0.84839652  0.92317296    -0.04100
Br545      Br  0.66203635  0.89796912  0.91995981    -0.00100
C546        C  0.50760054  0.17063560  0.74031952     0.01300
C547        C  0.48161987  0.15481328  0.73577237     0.04200
C548        C  0.47843857  0.13732305  0.71069865    -0.11900
C549        C  0.50104304  0.13607925  0.68986885     0.23400
C550        C  0.52611022  0.15361141  0.69335664    -0.12500
C551        C  0.52946307  0.17075270  0.71867368     0.04900
C552        C  0.49947442  0.11461132  0.66564330     0.27300
C553        C  0.51055074  0.08623437  0.66986493    -0.13200
C554        C  0.50907296  0.06562067  0.64714034     0.05400
C555        C  0.49612489  0.07320556  0.62020545    -0.09100
C556        C  0.48474335  0.10149694  0.61609022     0.06200
C557        C  0.48663233  0.12225131  0.63873687    -0.13500
Br558      Br  0.55644432  0.15280092  0.66415327    -0.05600
Br559      Br  0.45109073  0.15612279  0.76472080     0.00000
Br560      Br  0.52352407  0.02653496  0.65356312     0.00500
Br561      Br  0.47169049  0.16117767  0.63313261    -0.03900
Br562      Br  0.56469249  0.19309665  0.72465262     0.00600
Br563      Br  0.44399552  0.11357724  0.70568706    -0.03200
Br564      Br  0.52723745  0.07551437  0.70712001    -0.04100
Br565      Br  0.46737145  0.11208020  0.57915610    -0.00100
C566        C  0.54749333  0.15200629  0.83941354     0.01300
C567        C  0.53367429  0.14748512  0.86667866     0.04200
C568        C  0.54500175  0.12689691  0.88639277    -0.11900
C569        C  0.56882891  0.10925504  0.87825497     0.23400
C570        C  0.58238298  0.11334170  0.85096307    -0.12500
C571        C  0.57257733  0.13553439  0.83215137     0.04900
C572        C  0.57920721  0.08629452  0.89853332     0.27300
C573        C  0.60482784  0.09062592  0.91510061    -0.13200
C574        C  0.61365388  0.06945656  0.93550629     0.05400
C575        C  0.59569789  0.04504629  0.94100443    -0.09100
C576        C  0.56946321  0.04137350  0.92517066     0.06200
C577        C  0.56214012  0.06107724  0.90288243    -0.13500
Br578      Br  0.61369811  0.08783170  0.83897249    -0.05600
Br579      Br  0.49814906  0.16789568  0.87678072     0.00000
Br580      Br  0.65027045  0.07390931  0.95596593     0.00500
Br581      Br  0.52862846  0.05365791  0.87831045    -0.03900
Br582      Br  0.59456195  0.14421764  0.79720856     0.00600
Br583      Br  0.52768461  0.12252443  0.92465255    -0.03200
Br584      Br  0.62715051  0.12608212  0.91062988    -0.04100
Br585      Br  0.54264950  0.01036764  0.93510089    -0.00100
C586        C  0.49550266  0.08020365  0.39184156     0.01300
C587        C  0.50855643  0.07409211  0.36456418     0.04200
C588        C  0.51088096  0.09614520  0.34325449    -0.11900
C589        C  0.49936160  0.12417217  0.34867529     0.23400
C590        C  0.48672701  0.13041047  0.37600178    -0.12500
C591        C  0.48584939  0.10877619  0.39785670     0.04900
C592        C  0.50064355  0.14677763  0.32538662     0.27300
C593        C  0.52389035  0.16699024  0.32462212    -0.13200
C594        C  0.52794419  0.18474386  0.29981996     0.05400
C595        C  0.50867787  0.18244616  0.27588455    -0.09100
C596        C  0.48394651  0.16426989  0.27786798     0.06200
C597        C  0.48002432  0.14631102  0.30248419    -0.13500
Br598      Br  0.47044047  0.16852428  0.38327156    -0.05600
Br599      Br  0.52299323  0.03543275  0.35602058     0.00000
Br600      Br  0.56092733  0.21084702  0.29763367     0.00500
Br601      Br  0.44749118  0.11960393  0.30409042    -0.03900
Br602      Br  0.47485369  0.11917442  0.43696057     0.00600
Br603      Br  0.52987173  0.08807971  0.30645912    -0.03200
Br604      Br  0.55118712  0.16891945  0.35670928    -0.04100
Br605      Br  0.45639065  0.16293159  0.24599513    -0.00100
C606        C  0.55747251  0.16317403  0.18104145     0.01300
C607        C  0.54477695  0.15548000  0.15392402     0.04200
C608        C  0.55807169  0.13418102  0.13623553    -0.11900
C609        C  0.58330537  0.11951133  0.14607091     0.23400
C610        C  0.59633788  0.12759370  0.17277374    -0.12500
C611        C  0.58384211  0.14983284  0.18989776     0.04900
C612        C  0.59449372  0.09407869  0.12933185     0.27300
C613        C  0.57934138  0.06734882  0.13070361    -0.13200
C614        C  0.58701755  0.04430208  0.11193665     0.05400
C615        C  0.61100638  0.04725154  0.09277843    -0.09100
C616        C  0.62769873  0.07318352  0.09328017     0.06200
C617        C  0.61901690  0.09682968  0.11095585    -0.13500
Br618      Br  0.63062001  0.10728984  0.18643725    -0.05600
Br619      Br  0.50803788  0.17232789  0.14169380     0.00000
Br620      Br  0.56304539  0.00971178  0.11103176     0.00500
Br621      Br  0.63972185  0.13345208  0.10896588    -0.03900
Br622      Br  0.60320414  0.16231924  0.22529104     0.00600
Br623      Br  0.54122241  0.12427460  0.09878253    -0.03200
Br624      Br  0.54728863  0.06280495  0.15774979    -0.04100
Br625      Br  0.66196380  0.07648151  0.06905010    -0.00100
C626        C  0.50153908  0.79188251  0.27465310     0.01300
C627        C  0.51579178  0.78894142  0.30184132     0.04200
C628        C  0.51018056  0.80897588  0.32460204    -0.11900
C629        C  0.49033523  0.83214710  0.32029605     0.23400
C630        C  0.47509405  0.83425799  0.29356563    -0.12500
C631        C  0.48061560  0.81414649  0.27087691     0.04900
C632        C  0.48787903  0.85592849  0.34254879     0.27300
C633        C  0.46548044  0.85573856  0.36362520    -0.13200
C634        C  0.46350618  0.87840409  0.38454992     0.05400
C635        C  0.48470143  0.90098381  0.38528768    -0.09100
C636        C  0.50667467  0.90139950  0.36342375     0.06200
C637        C  0.50806370  0.87910981  0.34219945    -0.13500
Br638      Br  0.44813907  0.86598284  0.28740455    -0.05600
Br639      Br  0.54455260  0.75865080  0.30710717     0.00000
Br640      Br  0.43186247  0.87769621  0.41225672     0.00500
Br641      Br  0.53762262  0.88029440  0.31210431    -0.03900
Br642      Br  0.46054837  0.81778275  0.23397444     0.00600
Br643      Br  0.53104123  0.80593015  0.36112606    -0.03200
Br644      Br  0.43785391  0.82392678  0.36396930    -0.04100
Br645      Br  0.53415685  0.93334072  0.36073671    -0.00100
C646        C  0.56348656  0.78965608  0.18522357     0.01300
C647        C  0.58875960  0.80393045  0.19583522     0.04200
C648        C  0.60410827  0.82350775  0.17781166    -0.11900
C649        C  0.59534094  0.82754468  0.14861724     0.23400
C650        C  0.57254133  0.81046510  0.13691612    -0.12500
C651        C  0.55597679  0.79228132  0.15528853     0.04900
C652        C  0.60602912  0.85297919  0.13166696     0.27300
C653        C  0.58755506  0.87739407  0.12884730    -0.13200
C654        C  0.59439059  0.89955203  0.10889860     0.05400
C655        C  0.62094040  0.89866075  0.09328824    -0.09100
C656        C  0.64064413  0.87544553  0.09797601     0.06200
C657        C  0.63282942  0.85217806  0.11654494    -0.13500
Br658      Br  0.56271214  0.81397494  0.09595863    -0.05600
Br659      Br  0.60238875  0.79680593  0.23513508     0.00000
Br660      Br  0.56574075  0.92938067  0.10083109     0.00500
Br661      Br  0.65787433  0.81856630  0.11998006    -0.03900
Br662      Br  0.52136851  0.77382448  0.13954905     0.00600
Br663      Br  0.63580125  0.84635040  0.19361660    -0.03200
Br664      Br  0.55199073  0.87975117  0.15148232    -0.04100
Br665      Br  0.67744329  0.87487164  0.07755700    -0.00100
C666        C  0.89126441  0.38110664  0.50166990     0.01300
C667        C  0.89505821  0.35062655  0.50133168     0.04200
C668        C  0.87058138  0.33194509  0.50077623    -0.11900
C669        C  0.84198455  0.34360276  0.50046415     0.23400
C670        C  0.83821740  0.37418266  0.50038743    -0.12500
C671        C  0.86279305  0.39280241  0.50161109     0.04900
C672        C  0.81647901  0.32330099  0.50274386     0.27300
C673        C  0.80856529  0.30543368  0.47884487    -0.13200
C674        C  0.79131264  0.28027296  0.48338109     0.05400
C675        C  0.78107589  0.27351775  0.51167101    -0.09100
C676        C  0.78537076  0.29377369  0.53447215     0.06200
C677        C  0.80330819  0.31839521  0.53018319    -0.13500
Br678      Br  0.79943434  0.39052014  0.49884884    -0.05600
Br679      Br  0.93393163  0.33448893  0.50310649     0.00000
Br680      Br  0.78417623  0.25364260  0.45150654     0.00500
Br681      Br  0.81180210  0.34390020  0.56266880    -0.03900
Br682      Br  0.85753376  0.43429463  0.50495305     0.00600
Br683      Br  0.87631471  0.29017811  0.50143772    -0.03200
Br684      Br  0.82325627  0.31441700  0.44041181    -0.04100
Br685      Br  0.76795162  0.28658544  0.57213789    -0.00100
C686        C  0.89546613  0.59822479  0.51090608     0.01300
C687        C  0.87110142  0.59516618  0.49214095     0.04200
C688        C  0.84764508  0.61498057  0.49400601    -0.11900
C689        C  0.84855140  0.63803527  0.51433487     0.23400
C690        C  0.87245288  0.64073648  0.53353542    -0.12500
C691        C  0.89583883  0.62095625  0.53191322     0.04900
C692        C  0.82567049  0.66094222  0.51444465     0.27300
C693        C  0.82828814  0.68493745  0.49539457    -0.13200
C694        C  0.80974623  0.70915027  0.49865059     0.05400
C695        C  0.79029787  0.71050444  0.52247462    -0.09100
C696        C  0.78690318  0.68608614  0.54083684     0.06200
C697        C  0.80372481  0.66082279  0.53601160    -0.13500
Br698      Br  0.87339742  0.67227189  0.56165594    -0.05600
Br699      Br  0.86901335  0.56322540  0.46464970     0.00000
Br700      Br  0.81225888  0.74130768  0.47156873     0.00500
Br701      Br  0.79802594  0.62660674  0.55981820    -0.03900
Br702      Br  0.92896602  0.62667321  0.55759517     0.00600
Br703      Br  0.81403053  0.61061688  0.46896300    -0.03200
Br704      Br  0.85919416  0.68581361  0.46674627    -0.04100
Br705      Br  0.76086613  0.68820823  0.57381189    -0.00100
C706        C  0.18813464  0.26917503  0.52978077     0.01300
C707        C  0.18322128  0.29077766  0.55121891     0.04200
C708        C  0.16516720  0.31484293  0.54496299    -0.11900
C709        C  0.15096289  0.31674141  0.51770293     0.23400
C710        C  0.15748060  0.29638245  0.49558887    -0.12500
C711        C  0.17650644  0.27294829  0.50142839     0.04900
C712        C  0.12647385  0.33764202  0.51379817     0.27300
C713        C  0.09839899  0.32993086  0.52381980    -0.13200
C714        C  0.07516272  0.34983770  0.52146806     0.05400
C715        C  0.07986316  0.37760549  0.50909051    -0.09100
C716        C  0.10776802  0.38507283  0.49842561     0.06200
C717        C  0.13103296  0.36505506  0.50066165    -0.13500
Br718      Br  0.13822789  0.29926637  0.45817215    -0.05600
Br719      Br  0.19952254  0.28619211  0.58982758     0.00000
Br720      Br  0.03658439  0.33856003  0.53425785     0.00500
Br721      Br  0.16919293  0.37505284  0.48597891    -0.03900
Br722      Br  0.18428025  0.24451551  0.47131634     0.00600
Br723      Br  0.15818823  0.34432469  0.57426503    -0.03200
Br724      Br  0.09179722  0.29183801  0.54061665    -0.04100
Br725      Br  0.11448483  0.42323496  0.48219032    -0.00100
C726        C  0.18349776  0.71550053  0.52542657     0.01300
C727        C  0.17105279  0.70896644  0.49794553     0.04200
C728        C  0.15263904  0.68445561  0.49466758    -0.11900
C729        C  0.14659146  0.66633280  0.51882849     0.23400
C730        C  0.16051868  0.67180805  0.54578014    -0.12500
C731        C  0.17902149  0.69620687  0.54900622     0.04900
C732        C  0.12353230  0.64338555  0.51669423     0.27300
C733        C  0.09453818  0.65018219  0.52459051    -0.13200
C734        C  0.07251035  0.62878019  0.52271243     0.05400
C735        C  0.07924079  0.60048634  0.51266792    -0.09100
C736        C  0.10811437  0.59372035  0.50444207     0.06200
C737        C  0.13031172  0.61499348  0.50687624    -0.13500
Br738      Br  0.15247953  0.64699006  0.57882299    -0.05600
Br739      Br  0.17729259  0.73496001  0.46540953     0.00000
Br740      Br  0.03279577  0.63851929  0.53295107     0.00500
Br741      Br  0.17014635  0.60515342  0.49759408    -0.03900
Br742      Br  0.19721033  0.70423916  0.58619152     0.00600
Br743      Br  0.13382886  0.67686031  0.45768629    -0.03200
Br744      Br  0.08509356  0.68892274  0.53819556    -0.04100
Br745      Br  0.11725687  0.55508239  0.49047535    -0.00100
C746        C  0.76789674  0.51330504  0.70425065     0.01300
C747        C  0.77692466  0.48417891  0.69925793     0.04200
C748        C  0.79664948  0.47775977  0.67650413    -0.11900
C749        C  0.80900087  0.50048461  0.65989828     0.23400
C750        C  0.79829820  0.52913556  0.66316780    -0.12500
C751        C  0.77716919  0.53533999  0.68466801     0.04900
C752        C  0.83577636  0.49503074  0.64219412     0.27300
C753        C  0.86307857  0.49241185  0.65640630    -0.13200
C754        C  0.88876434  0.48847353  0.63997153     0.05400
C755        C  0.88756232  0.48878944  0.60924889    -0.09100
C756        C  0.86045585  0.49209054  0.59501857     0.06200
C757        C  0.83448431  0.49397776  0.61142838    -0.13500
Br758      Br  0.81466383  0.56037808  0.64007880    -0.05600
Br759      Br  0.76602625  0.45342680  0.72585666     0.00000
Br760      Br  0.92585609  0.48369864  0.65945254     0.00500
Br761      Br  0.79717623  0.49524926  0.59190048    -0.03900
Br762      Br  0.76261921  0.57465571  0.68886115     0.00600
Br763      Br  0.80869598  0.43804879  0.66934358    -0.03200
Br764      Br  0.86548828  0.49561035  0.69841431    -0.04100
Br765      Br  0.85920581  0.49595557  0.55314459    -0.00100
C766        C  0.89245088  0.59289641  0.91098105     0.01300
C767        C  0.87569013  0.56701090  0.91100379     0.04200
C768        C  0.85402531  0.56281982  0.88975819    -0.11900
C769        C  0.85023725  0.58362820  0.86746483     0.23400
C770        C  0.86633199  0.60983053  0.86785720    -0.12500
C771        C  0.88698974  0.61474279  0.89006286     0.04900
C772        C  0.83074485  0.57659558  0.84273520     0.27300
C773        C  0.84005408  0.55614258  0.82176901    -0.13200
C774        C  0.82003604  0.54479043  0.80150925     0.05400
C775        C  0.79127584  0.55605344  0.80033047    -0.09100
C776        C  0.78291354  0.57860974  0.81967695     0.06200
C777        C  0.80217215  0.58778891  0.84176384    -0.13500
Br778      Br  0.86045771  0.63858555  0.83770669    -0.05600
Br779      Br  0.88302301  0.53667903  0.93937809     0.00000
Br780      Br  0.83160912  0.51158756  0.77808133     0.00500
Br781      Br  0.78884324  0.61395490  0.87198203    -0.03900
Br782      Br  0.90774751  0.65130692  0.89211771     0.00600
Br783      Br  0.82951838  0.52845652  0.89089773    -0.03200
Br784      Br  0.87999790  0.54248331  0.82204614    -0.04100
Br785      Br  0.74519571  0.59712204  0.81599789    -0.00100
C786        C  0.18461931  0.50504090  0.73260383     0.01300
C787        C  0.18557269  0.52196369  0.70693272     0.04200
C788        C  0.16545606  0.51664551  0.68420217    -0.11900
C789        C  0.14444632  0.49429862  0.68708102     0.23400
C790        C  0.14489567  0.47607546  0.71185720    -0.12500
C791        C  0.16507030  0.48132076  0.73447275     0.04900
C792        C  0.12055503  0.49131507  0.66522598     0.27300
C793        C  0.09418939  0.50660490  0.66933804    -0.13200
C794        C  0.07131724  0.50373957  0.64894309     0.05400
C795        C  0.07499256  0.48625423  0.62373605    -0.09100
C796        C  0.10125969  0.47054750  0.61992860     0.06200
C797        C  0.12386848  0.47292485  0.64078122    -0.13500
Br798      Br  0.11639774  0.44529966  0.71568081    -0.05600
Br799      Br  0.21291775  0.55386185  0.70404113     0.00000
Br800      Br  0.03434884  0.52253025  0.65666184     0.00500
Br801      Br  0.15963292  0.45126117  0.63596139    -0.03900
Br802      Br  0.16483521  0.45721957  0.76903788     0.00600
Br803      Br  0.16518198  0.54124900  0.65003738    -0.03200
Br804      Br  0.08957303  0.53163231  0.70301731    -0.04100
Br805      Br  0.10705303  0.44690978  0.58551289    -0.00100
C806        C  0.04628094  0.58791041  0.91417243     0.01300
C807        C  0.05004178  0.56156168  0.89858698     0.04200
C808        C  0.07301595  0.55883786  0.87857479    -0.11900
C809        C  0.09496854  0.58034221  0.87748799     0.23400
C810        C  0.09189240  0.60629848  0.89369935    -0.12500
C811        C  0.06663202  0.61081571  0.91057155     0.04900
C812        C  0.12211235  0.57417272  0.86109303     0.27300
C813        C  0.14154938  0.55281322  0.87174327    -0.13200
C814        C  0.16453962  0.54283773  0.85408363     0.05400
C815        C  0.16926973  0.55560175  0.82638458    -0.09100
C816        C  0.15144119  0.57898321  0.81705809     0.06200
C817        C  0.12730042  0.58755449  0.83391754    -0.13500
Br818      Br  0.12301970  0.63469663  0.89421389    -0.05600
Br819      Br  0.02530947  0.52822285  0.90613293     0.00000
Br820      Br  0.18734742  0.50976517  0.86698771     0.00500
Br821      Br  0.10019959  0.61608983  0.81885927    -0.03900
Br822      Br  0.06062612  0.64777498  0.92988540     0.00600
Br823      Br  0.07476729  0.52540599  0.85288433    -0.03200
Br824      Br  0.13557957  0.53611927  0.91007026    -0.04100
Br825      Br  0.15987782  0.59912097  0.78095949    -0.00100
C826        C  0.89905784  0.49059977  0.39142609     0.01300
C827        C  0.87415070  0.47268738  0.39496330     0.04200
C828        C  0.85200092  0.47223757  0.37353914    -0.11900
C829        C  0.85394314  0.49052245  0.34894707     0.23400
C830        C  0.87863078  0.50859365  0.34535969    -0.12500
C831        C  0.90135594  0.50826263  0.36620937     0.04900
C832        C  0.83032115  0.49067473  0.32653510     0.27300
C833        C  0.83109174  0.47071559  0.30310013    -0.13200
C834        C  0.81126536  0.47356344  0.27975978     0.05400
C835        C  0.79128942  0.49693648  0.27923736    -0.09100
C836        C  0.78893354  0.51545369  0.30370707     0.06200
C837        C  0.80809010  0.51195556  0.32760668    -0.13500
Br838      Br  0.88139678  0.53349085  0.31144535    -0.05600
Br839      Br  0.86935017  0.44973027  0.42980687     0.00000
Br840      Br  0.81215288  0.44621459  0.24772368     0.00500
Br841      Br  0.80462545  0.53673394  0.36148935    -0.03900
Br842      Br  0.93644490  0.53046428  0.35887636     0.00600
Br843      Br  0.81900500  0.44633130  0.37753614    -0.03200
Br844      Br  0.86021060  0.44034872  0.30233822    -0.04100
Br845      Br  0.76043512  0.54638362  0.30368383    -0.00100
C846        C  0.80483838  0.54130252  0.18162745     0.01300
C847        C  0.79690786  0.56839041  0.16938209     0.04200
C848        C  0.81235097  0.57944100  0.14526607    -0.11900
C849        C  0.83663674  0.56410634  0.13437223     0.23400
C850        C  0.84603152  0.53825978  0.14811297    -0.12500
C851        C  0.82976378  0.52647227  0.17122815     0.04900
C852        C  0.85172264  0.57390778  0.10760538     0.27300
C853        C  0.84714929  0.55852632  0.08130595    -0.13200
C854        C  0.86606600  0.56288010  0.05761267     0.05400
C855        C  0.88824564  0.58415781  0.05955165    -0.09100
C856        C  0.89072754  0.60169537  0.08474730     0.06200
C857        C  0.87308527  0.59596390  0.10913339    -0.13500
Br858      Br  0.88082326  0.51857073  0.13451659    -0.05600
Br859      Br  0.76503706  0.59036235  0.18590433     0.00000
Br860      Br  0.86334915  0.53770348  0.02386561     0.00500
Br861      Br  0.87969509  0.61665905  0.14526209    -0.03900
Br862      Br  0.84071471  0.48903332  0.18700555     0.00600
Br863      Br  0.79960159  0.61480240  0.12634438    -0.03200
Br864      Br  0.81603135  0.53018373  0.07855242    -0.04100
Br865      Br  0.91932744  0.63263328  0.08616453    -0.00100
C866        C  0.17194594  0.50264769  0.26785304     0.01300
C867        C  0.16111875  0.47520490  0.27658450     0.04200
C868        C  0.14394025  0.47270570  0.30198782    -0.11900
C869        C  0.13802800  0.49755341  0.31920858     0.23400
C870        C  0.15044451  0.52466573  0.31148416    -0.12500
C871        C  0.16715400  0.52724859  0.28573145     0.04900
C872        C  0.11733419  0.49555307  0.34430035     0.27300
C873        C  0.08698734  0.49771781  0.33933422    -0.13200
C874        C  0.06726480  0.49567885  0.36287173     0.05400
C875        C  0.07772196  0.49197054  0.39162059    -0.09100
C876        C  0.10807178  0.49065538  0.39670533     0.06200
C877        C  0.12782108  0.49200176  0.37306967    -0.13500
Br878      Br  0.14314358  0.55853208  0.33543191    -0.05600
Br879      Br  0.16843770  0.44134571  0.25257603     0.00000
Br880      Br  0.02577184  0.49839392  0.35584554     0.00500
Br881      Br  0.16929838  0.48931397  0.37993539    -0.03900
Br882      Br  0.18240525  0.56468609  0.27406391     0.00600
Br883      Br  0.12702026  0.43557623  0.31229899    -0.03200
Br884      Br  0.07252240  0.50413652  0.30023805    -0.04100
Br885      Br  0.12257616  0.48831679  0.43611726    -0.00100
C886        C  0.14628730  0.51939210  0.16402933     0.01300
C887        C  0.14981094  0.54322560  0.14478374     0.04200
C888        C  0.12836084  0.54912051  0.12365102    -0.11900
C889        C  0.10275145  0.53213723  0.12256355     0.23400
C890        C  0.09919396  0.50829049  0.14158380    -0.12500
C891        C  0.12124493  0.50146877  0.16182446     0.04900
C892        C  0.07923321  0.54007037  0.10193725     0.27300
C893        C  0.06077754  0.56377833  0.10842630    -0.13200
C894        C  0.04009892  0.57311897  0.08779339     0.05400
C895        C  0.03686510  0.55778714  0.06122539    -0.09100
C896        C  0.05411770  0.53288439  0.05561663     0.06200
C897        C  0.07593106  0.52463515  0.07553105    -0.13500
Br898      Br  0.06385142  0.48531540  0.14009785    -0.05600
Br899      Br  0.18320146  0.56883409  0.14807885     0.00000
Br900      Br  0.01698549  0.60749170  0.09560262     0.00500
Br901      Br  0.10194549  0.49283022  0.06628856    -0.03900
Br902      Br  0.11752404  0.46681942  0.18554229     0.00600
Br903      Br  0.13383574  0.58058414  0.09611555    -0.03200
Br904      Br  0.06421412  0.58360232  0.14553298    -0.04100
Br905      Br  0.04766905  0.50986588  0.02081258    -0.00100
C906        C  0.51118321  0.25970791  0.19711087     0.01300
C907        C  0.53218767  0.28175205  0.19267391     0.04200
C908        C  0.52608956  0.30517527  0.17376631    -0.11900
C909        C  0.49872656  0.30688813  0.15970877     0.23400
C910        C  0.47690738  0.28614716  0.16600318    -0.12500
C911        C  0.48323622  0.26236119  0.18437743     0.04900
C912        C  0.49392930  0.32879017  0.13632225     0.27300
C913        C  0.48599126  0.35764494  0.14335274    -0.13200
C914        C  0.48330867  0.37866145  0.12107328     0.05400
C915        C  0.48760689  0.37065025  0.09168189    -0.09100
C916        C  0.49521950  0.34171075  0.08464337     0.06200
C917        C  0.49847929  0.32083605  0.10690311    -0.13500
Br918      Br  0.43893075  0.28958743  0.14802425    -0.05600
Br919      Br  0.56981640  0.27890363  0.21145449     0.01200
Br920      Br  0.47610074  0.41883823  0.13092410     0.00500
Br921      Br  0.50994818  0.28144899  0.09721076    -0.03900
Br922      Br  0.45454638  0.23200296  0.18986103     0.00600
Br923      Br  0.55581097  0.33389984  0.16555431    -0.03200
Br924      Br  0.47937298  0.36830371  0.18356501    -0.04100
Br925      Br  0.50170435  0.33078952  0.04446276    -0.00100
C926        C  0.49152091  0.59276353  0.10005590     0.01300
C927        C  0.47264370  0.58888900  0.12424090     0.04200
C928        C  0.47318031  0.60885731  0.14775709    -0.11900
C929        C  0.49218961  0.63301347  0.14711632     0.23400
C930        C  0.51064514  0.63721197  0.12284191    -0.12500
C931        C  0.51040957  0.61720646  0.09945286     0.04900
C932        C  0.49264637  0.65475591  0.17134612     0.27300
C933        C  0.47362557  0.67892305  0.17053312    -0.13200
C934        C  0.47874124  0.70311967  0.18885280     0.05400
C935        C  0.50285695  0.70319786  0.20807365    -0.09100
C936        C  0.51992033  0.67779063  0.21106218     0.06200
C937        C  0.51478393  0.65355250  0.19277140    -0.13500
Br938      Br  0.53581745  0.67107853  0.12141874    -0.05600
Br939      Br  0.44647451  0.55585121  0.12585129     0.00000
Br940      Br  0.45461933  0.73746345  0.18543018     0.00500
Br941      Br  0.53940502  0.61953564  0.19536595    -0.03900
Br942      Br  0.53461893  0.62488673  0.06576438     0.00600
Br943      Br  0.44792896  0.60331885  0.18098808    -0.03200
Br944      Br  0.44211475  0.67982934  0.14253221    -0.04100
Br945      Br  0.55169927  0.67729122  0.23872085    -0.00100
C946        C  0.49297141  0.71205896  0.80884455     0.01300
C947        C  0.47153105  0.71231408  0.83093193     0.04200
C948        C  0.46942989  0.68890224  0.85069566    -0.11900
C949        C  0.48775480  0.66440889  0.84749173     0.23400
C950        C  0.50674632  0.66264279  0.82331727    -0.12500
C951        C  0.50967177  0.68661588  0.80424209     0.04900
C952        C  0.48873502  0.64169606  0.87070156     0.27300
C953        C  0.51030121  0.64319561  0.89267163    -0.13200
C954        C  0.51100915  0.62226946  0.91522205     0.05400
C955        C  0.49063115  0.59901618  0.91542525    -0.09100
C956        C  0.46917194  0.59750770  0.89310450     0.06200
C957        C  0.46800185  0.61904184  0.87117083    -0.13500
Br958      Br  0.53013669  0.62809138  0.81770553    -0.05600
Br959      Br  0.44632594  0.74579030  0.83498631     0.00000
Br960      Br  0.53853979  0.62731671  0.94687467     0.00500
Br961      Br  0.43773254  0.61787101  0.84178432    -0.03900
Br962      Br  0.53836320  0.68563777  0.77346890     0.00600
Br963      Br  0.44327592  0.69146221  0.88360495    -0.03200
Br964      Br  0.53849734  0.67459106  0.89213762    -0.04100
Br965      Br  0.44179053  0.56546139  0.89136849    -0.00100
C966        C  0.59859831  0.48462285  0.90928514     0.01300
C967        C  0.62603944  0.49858453  0.91172983     0.04200
C968        C  0.64525137  0.49941624  0.88764186    -0.11900
C969        C  0.63712325  0.48667261  0.86074497     0.23400
C970        C  0.60988861  0.47251259  0.85831433    -0.12500
C971        C  0.59073725  0.47137501  0.88248182     0.04900
C972        C  0.65645956  0.49014870  0.83466729     0.27300
C973        C  0.65251384  0.51420277  0.81584858    -0.13200
C974        C  0.67329172  0.52038860  0.79398798     0.05400
C975        C  0.69816204  0.50257195  0.79073766    -0.09100
C976        C  0.70101690  0.47733053  0.80817185     0.06200
C977        C  0.68015244  0.47103770  0.82996524    -0.13500
Br978      Br  0.59861866  0.45548412  0.82143428    -0.05600
Br979      Br  0.63780444  0.51613661  0.94827305     0.00000
Br980      Br  0.66917678  0.55481800  0.77014624     0.00500
Br981      Br  0.68485185  0.43720458  0.85452466    -0.03900
Br982      Br  0.55286311  0.45338018  0.87810051     0.00600
Br983      Br  0.68268984  0.51854752  0.89121298    -0.03200
Br984      Br  0.61956723  0.53981232  0.82143178    -0.04100
Br985      Br  0.73493634  0.45279575  0.80371270    -0.00100
C986        C  0.50804720  0.25041794  0.81641959     0.01300
C987        C  0.47938437  0.25582674  0.82631623     0.04200
C988        C  0.47334334  0.28102877  0.84286543    -0.11900
C989        C  0.49592776  0.30083176  0.84960528     0.23400
C990        C  0.52418516  0.29626659  0.83824828    -0.12500
C991        C  0.53018798  0.27115214  0.82159125     0.04900
C992        C  0.49086939  0.32454106  0.87119851     0.27300
C993        C  0.48081939  0.35218598  0.86221650    -0.13200
C994        C  0.47800545  0.37496887  0.88279407     0.05400
C995        C  0.48494712  0.37003981  0.91240319    -0.09100
C996        C  0.49353131  0.34194249  0.92152256     0.06200
C997        C  0.49657858  0.31929622  0.90099590    -0.13500
Br998      Br  0.55510979  0.32342649  0.84728120    -0.05600
Br999      Br  0.44896252  0.22748581  0.81938911     0.00000
Br1000     Br  0.46567494  0.41311681  0.87032523     0.00500
Br1001     Br  0.50865630  0.28093162  0.91359574    -0.03900
Br1002     Br  0.56908430  0.26421330  0.80694835     0.00600
Br1003     Br  0.43467861  0.28746292  0.85825383    -0.03200
Br1004     Br  0.47107341  0.35862786  0.82173737    -0.04100
Br1005     Br  0.50054382  0.33428440  0.96235100    -0.00100
C1006       C  0.26834288  0.51689122  0.80426513     0.01300
C1007       C  0.27535953  0.48804181  0.81259129     0.04200
C1008       C  0.30057910  0.48256736  0.82933035    -0.11900
C1009       C  0.31792349  0.50595106  0.83923729     0.23400
C1010       C  0.31218587  0.53446321  0.82924421    -0.12500
C1011       C  0.28772306  0.53983556  0.81134265     0.04900
C1012       C  0.33920391  0.50108553  0.86330742     0.27300
C1013       C  0.32913232  0.50073550  0.89243912    -0.13200
C1014       C  0.34892258  0.49656952  0.91559759     0.05400
C1015       C  0.37886200  0.49278112  0.90978733    -0.09100
C1016       C  0.38885483  0.49228015  0.88067752     0.06200
C1017       C  0.36903161  0.49637633  0.85742553    -0.13500
Br1018     Br  0.33673778  0.56635018  0.84176888    -0.05600
Br1019     Br  0.24873396  0.45637166  0.80448835     0.00000
Br1020     Br  0.33503296  0.49569930  0.95537901     0.00500
Br1021     Br  0.38244885  0.49521697  0.81754473    -0.03900
Br1022     Br  0.27981368  0.57888790  0.79768018     0.00600
Br1023     Br  0.31052513  0.44322725  0.84053406    -0.03200
Br1024     Br  0.28805872  0.50584776  0.90055610    -0.04100
Br1025     Br  0.42968061  0.48601072  0.87279801    -0.00100
C1026       C  0.24891881  0.49556028  0.18826840     0.01300
C1027       C  0.26836624  0.51930122  0.18593433     0.04200
C1028       C  0.29336811  0.51708625  0.16812044    -0.11900
C1029       C  0.29915960  0.49101065  0.15276154     0.23400
C1030       C  0.28078652  0.46662578  0.15674939    -0.12500
C1031       C  0.25566642  0.46894956  0.17435039     0.04900
C1032       C  0.32351597  0.48976933  0.13119276     0.27300
C1033       C  0.31919662  0.50012851  0.10247759    -0.13200
C1034       C  0.34221893  0.49921189  0.08203655     0.05400
C1035       C  0.36964317  0.48762355  0.09008207    -0.09100
C1036       C  0.37394828  0.47751330  0.11883995     0.06200
C1037       C  0.35092686  0.47836156  0.13926851    -0.13500
Br1038     Br  0.28924984  0.43054135  0.13678092    -0.05600
Br1039     Br  0.25951213  0.55550525  0.20555290     0.00000
Br1040     Br  0.33595577  0.51338887  0.04282976     0.00500
Br1041     Br  0.35676626  0.46386252  0.17838666    -0.03900
Br1042     Br  0.22940409  0.43624085  0.17818596     0.00600
Br1043     Br  0.31888516  0.55024747  0.16339232    -0.03200
Br1044     Br  0.28146106  0.51515390  0.09112949    -0.04100
Br1045     Br  0.41192319  0.46411607  0.13072007    -0.00100
C1046       C  0.60098289  0.47574179  0.09494322     0.01300
C1047       C  0.59757140  0.45669878  0.11908818     0.04200
C1048       C  0.61893531  0.45590924  0.14143426    -0.11900
C1049       C  0.64388293  0.47384389  0.13965258     0.23400
C1050       C  0.64795073  0.49174303  0.11497927    -0.12500
C1051       C  0.62657671  0.49292441  0.09288403     0.04900
C1052       C  0.66590012  0.47483844  0.16367424     0.27300
C1053       C  0.66298806  0.49557684  0.18630850    -0.13200
C1054       C  0.68677885  0.50162895  0.20498252     0.05400
C1055       C  0.71361614  0.48717868  0.20086888    -0.09100
C1056       C  0.71561506  0.46458015  0.18000457     0.06200
C1057       C  0.69181298  0.45839628  0.16146981    -0.13500
Br1058     Br  0.68338520  0.51439590  0.11128599    -0.05600
Br1059     Br  0.56321777  0.43248999  0.12242127     0.00000
Br1060     Br  0.68350576  0.53140667  0.23457911     0.00500
Br1061     Br  0.69552068  0.42929109  0.13125374    -0.03900
Br1062     Br  0.63357082  0.51720253  0.05909455     0.00600
Br1063     Br  0.61436616  0.43024649  0.17450431    -0.03200
Br1064     Br  0.62724445  0.51752931  0.18989367    -0.04100
Br1065     Br  0.75189870  0.44364494  0.17548496    -0.00100
loop_ 
_geom_bond_atom_site_label_1 
_geom_bond_atom_site_label_2 
_geom_bond_distance 
_geom_bond_site_symmetry_2 
_ccdc_geom_bond_type 
N1            N2   1.321       .  A
N1            N7   1.315       .  A
N1          Mn30   2.215       .  S
N2            C9   1.356       .  A
N3            N5   1.316       .  A
N3            N4   1.323       .  A
N3          Mn19   2.214   1_556  S
N4           C10   1.355       .  A
N5            N6   1.323       .  A
N5          Mn30   2.221   1_556  S
N6           C10   1.355       .  A
N7            N8   1.323       .  A
N7          Mn19   2.207       .  S
N8            C9   1.354       .  A
C9         C1046   1.490       .  S
C10         C966   1.491       .  S
N11          N17   1.317       .  A
N11          N12   1.324       .  A
N11         Mn41   2.223   1_556  S
N12          C20   1.355       .  A
N13          N14   1.318       .  A
N13          N15   1.318       .  A
N13         Mn19   2.195       .  S
N14          C21   1.348       .  A
N15          N16   1.324       .  A
N15         Mn41   2.221       .  S
N16          C21   1.356       .  A
N17          N18   1.320       .  A
N17         Mn19   2.202   1_556  S
N18          C20   1.351       .  A
Mn19        Cl43   2.550       .  S
C20         C995   1.480       .  S
C21         C915   1.474       .  S
N22          N23   1.323       .  A
N22          N28   1.315       .  A
N22         Mn30   2.213   1_556  S
N23          C31   1.357       .  A
N24          N26   1.317       .  A
N24          N25   1.321       .  A
N24         Mn42   2.205       .  S
N25          C32   1.353       .  A
N26          N27   1.322       .  A
N26         Mn30   2.218       .  S
N27          C32   1.356       .  A
N28          N29   1.319       .  A
N28         Mn42   2.195   1_556  S
N29          C31   1.351       .  A
Mn30        Cl43   2.553       .  S
C31         C955   1.489       .  S
C32         C926   1.489       .  S
N33          N34   1.325       .  A
N33          N39   1.317       .  A
N33         Mn41   2.230       .  S
N34          C44   1.357       .  A
N35          N36   1.320       .  A
N35          N37   1.317       .  A
N35         Mn42   2.207   1_556  S
N36          C45   1.351       .  A
N37          N38   1.323       .  A
N37         Mn41   2.215   1_556  S
N38          C45   1.354       .  A
N39          N40   1.321       .  A
N39         Mn42   2.200       .  S
N40          C44   1.351       .  A
Mn41        Cl43   2.557       .  S
Mn42        Cl43   2.550       .  S
C44        C1035   1.485       .  S
C45        C1015   1.476       .  S
C46        C1026   1.482       .  S
C46          C47   1.400       .  A
C46          C51   1.411       .  A
C47          C48   1.397       .  A
C47          H52   1.085       .  S
C48         C886   1.479       .  S
C48          C49   1.399       .  A
C49          C50   1.401       .  A
C49          H53   1.085       .  S
C50         C866   1.483       .  S
C50          C51   1.411       .  A
C51          H54   1.083       .  S
C55        C1055   1.484       .  S
C55          C56   1.402       .  A
C55          C60   1.410       .  A
C56          C57   1.397       .  A
C56          H61   1.085       .  S
C57         C846   1.478       .  S
C57          C58   1.397       .  A
C58          C59   1.403       .  A
C58          H62   1.085       .  S
C59         C835   1.480       .  S
C59          C60   1.411       .  A
C60          H63   1.083       .  S
C64         C786   1.479       .  S
C64          C65   1.397       .  A
C64          C69   1.407       .  A
C65          C66   1.396       .  A
C65          H70   1.085       .  S
C66         C815   1.480       .  S
C66          C67   1.399       .  A
C67          C68   1.405       .  A
C67          H71   1.084       .  S
C68        C1006   1.485       .  S
C68          C69   1.411       .  A
C69          H72   1.083       .  S
C73         C746   1.494       .  S
C73          C74   1.417       .  A
C73          C78   1.403       .  A
C74          C75   1.413       .  A
C74          H79   1.083       .  S
C75         C975   1.485       .  S
C75          C76   1.398       .  A
C76          C77   1.396       .  A
C76          H80   1.085       .  S
C77         C775   1.480       .  S
C77          C78   1.396       .  A
C78          H81   1.084       .  S
N82          C87   1.353       .  A
N82          C86   1.354       .  A
N82         H114   1.036       .  S
N83          C90   1.345       .  A
N83          C91   1.347   1_556  A
N84          C89   1.350       .  A
N84          C88   1.350       .  A
N84         H115   1.039       .  S
N85          C92   1.350       .  A
N85          C93   1.350   1_556  A
C86          C94   1.386       .  A
C86         C102   1.417       .  A
C87         C103   1.421   1_655  A
C87          C95   1.389       .  A
C88          C96   1.387       .  A
C88         C105   1.410       .  A
C89         C104   1.409   1_655  A
C89          C97   1.387       .  A
C90         C102   1.405       .  A
C90          C98   1.386       .  A
C91         C105   1.405       .  A
C91          C99   1.385       .  A
C92         C100   1.389       .  A
C92         C103   1.417       .  A
C93         C101   1.385       .  A
C93         C104   1.411       .  A
C94          C95   1.374       .  A
C94         H106   1.082       .  S
C95         H107   1.082       .  S
C96          C97   1.374       .  A
C96         H108   1.082       .  S
C97         H109   1.082       .  S
C98          C99   1.373   1_556  A
C98         H110   1.082       .  S
C99         H111   1.082       .  S
C100        C101   1.370   1_556  A
C100        H112   1.081       .  S
C101        H113   1.082       .  S
C102        C766   1.483       .  S
C103        C806   1.490       .  S
C104        C895   1.486       .  S
C105        C855   1.481       .  S
N116        N117   1.321       .  A
N116        N122   1.317       .  A
N116       Mn145   2.209   1_455  S
N117        C124   1.353       .  A
N118        N120   1.315       .  A
N118        N119   1.323       .  A
N118       Mn134   2.215       .  S
N119        C125   1.357       .  A
N120        N121   1.316       .  A
N120       Mn145   2.180       .  S
N121        C125   1.348       .  A
N122        N123   1.323       .  A
N122       Mn134   2.212   1_455  S
N123        C124   1.353       .  A
C124        C735   1.480       .  S
C125        C686   1.482       .  S
N126        N132   1.317       .  A
N126        N127   1.322       .  A
N126       Mn156   2.212       .  S
N127        C135   1.354       .  A
N128        N129   1.321       .  A
N128        N130   1.317       .  A
N128       Mn134   2.208   1_455  S
N129        C136   1.352       .  A
N130        N131   1.324       .  A
N130       Mn156   2.227   1_455  S
N131        C136   1.356       .  A
N132        N133   1.323       .  A
N132       Mn134   2.217       .  S
N133        C135   1.355       .  A
Mn134      Cl158   2.556       .  S
C135        C826   1.490       .  S
C136        C875   1.483       .  S
N137        N138   1.320       .  A
N137        N143   1.315       .  A
N137       Mn145   2.202       .  S
N138        C146   1.351       .  A
N139        N141   1.315       .  A
N139        N140   1.324       .  A
N139       Mn157   2.221   1_455  S
N140        C147   1.357       .  A
N141        N142   1.319       .  A
N141       Mn145   2.194   1_455  S
N142        C147   1.351       .  A
N143        N144   1.324       .  A
N143       Mn157   2.212       .  S
N144        C146   1.355       .  A
Mn145      Cl158   2.542       .  S
C146        C755   1.477       .  S
C147        C795   1.484       .  S
N148        N149   1.322       .  A
N148        N154   1.317       .  A
N148       Mn156   2.214   1_455  S
N149        C159   1.354       .  A
N150        N151   1.323       .  A
N150        N152   1.318       .  A
N150       Mn157   2.212       .  S
N151        C160   1.353       .  A
N152        N153   1.324       .  A
N152       Mn156   2.225       .  S
N153        C160   1.355       .  A
N154        N155   1.319       .  A
N154       Mn157   2.202   1_455  S
N155        C159   1.351       .  A
Mn156      Cl158   2.550       .  S
Mn157      Cl158   2.558       .  S
C159        C715   1.477       .  S
C160        C666   1.484       .  S
C161        C626   1.487       .  S
C161        C162   1.403       .  A
C161        C166   1.410       .  A
C162        C163   1.404       .  A
C162        H167   1.084       .  S
C163        C646   1.488       .  S
C163        C164   1.398       .  A
C164        C165   1.402       .  A
C164        H168   1.084       .  S
C165        C935   1.482       .  S
C165        C166   1.410       .  A
C166        H169   1.083       .  S
C170        C906   1.479       .  S
C170        C171   1.402       .  A
C170        C175   1.408       .  A
C171        C172   1.398       .  A
C171        H176   1.084       .  S
C172        C606   1.484       .  S
C172        C173   1.400       .  A
C173        C174   1.402       .  A
C173        H177   1.085       .  S
C174        C595   1.480       .  S
C174        C175   1.406       .  A
C175        H178   1.083       .  S
C179        C986   1.479       .  S
C179        C180   1.403       .  A
C179        C184   1.406       .  A
C180        C181   1.400       .  A
C180        H185   1.084       .  S
C181        C566   1.485       .  S
C181        C182   1.400       .  A
C182        C183   1.400       .  A
C182        H186   1.084       .  S
C183        C546   1.476       .  S
C183        C184   1.405       .  A
C184        H187   1.083       .  S
C188        C506   1.487       .  S
C188        C189   1.408       .  A
C188        C193   1.411       .  A
C189        C190   1.405       .  A
C189        H194   1.084       .  S
C190        C526   1.492       .  S
C190        C191   1.398       .  A
C191        C192   1.400       .  A
C191        H195   1.085       .  S
C192        C946   1.483       .  S
C192        C193   1.408       .  A
C193        H196   1.083       .  S
N197        C202   1.354       .  A
N197        C201   1.353   1_554  A
N197        H229   1.038   1_545  S
N198        C205   1.351       .  A
N198        C206   1.352       .  A
N199        C204   1.354       .  A
N199        C203   1.357   1_554  A
N199        H230   1.036       .  S
N200        C207   1.352       .  A
N200        C208   1.350       .  A
C201        C209   1.387   1_556  A
C201        C217   1.414       .  A
C202        C218   1.417       .  A
C202        C210   1.388       .  A
C203        C211   1.387   1_556  A
C203        C220   1.421       .  A
C204        C219   1.421       .  A
C204        C212   1.389       .  A
C205        C217   1.413   1_565  A
C205        C213   1.386       .  A
C206        C220   1.416       .  A
C206        C214   1.387       .  A
C207        C215   1.385       .  A
C207        C218   1.414   1_565  A
C208        C216   1.387       .  A
C208        C219   1.416       .  A
C209        C210   1.373       .  A
C209        H221   1.082   1_554  S
C210        H222   1.082       .  S
C211        C212   1.371       .  A
C211        H223   1.082   1_554  S
C212        H224   1.082       .  S
C213        C214   1.369       .  A
C213        H225   1.082   1_565  S
C214        H226   1.081       .  S
C215        C216   1.376       .  A
C215        H227   1.082   1_565  S
C216        H228   1.082       .  S
C217        C575   1.490       .  S
C218        C615   1.496       .  S
C219        C655   1.491       .  S
C220        C535   1.497       .  S
C231        C726   1.487       .  S
C231        C232   1.402       .  A
C231        C236   1.411       .  A
C232        C233   1.400       .  A
C232        H237   1.084       .  S
C233        C486   1.489       .  S
C233        C234   1.401       .  A
C234        C235   1.403       .  A
C234        H238   1.084       .  S
C235        C466   1.485       .  S
C235        C236   1.411       .  A
C236        H239   1.083       .  S
C240        C435   1.485       .  S
C240        C241   1.410       .  A
C240        C245   1.402       .  A
C241        C242   1.411       .  A
C241        H246   1.083       .  S
C242        C675   1.489       .  S
C242        C243   1.406       .  A
C243        C244   1.402       .  A
C243        H247   1.084       .  S
C244        C446   1.491       .  S
C244        C245   1.401       .  A
C245        H248   1.084       .  S
C249        C706   1.484       .  S
C249        C250   1.410       .  A
C249        C254   1.402       .  A
C250        C251   1.409       .  A
C250        H255   1.083       .  S
C251        C395   1.482       .  S
C251        C252   1.401       .  A
C252        C253   1.399       .  A
C252        H256   1.084       .  S
C253        C415   1.483       .  S
C253        C254   1.399       .  A
C254        H257   1.084       .  S
C258        C346   1.490       .  S
C258        C259   1.408       .  A
C258        C263   1.406       .  A
C259        C260   1.407       .  A
C259        H264   1.084       .  S
C260        C366   1.497       .  S
C260        C261   1.402       .  A
C261        C262   1.402       .  A
C261        H265   1.084       .  S
C262        C695   1.478       .  S
C262        C263   1.404       .  A
C263        H266   1.083       .  S
N267        C272   1.351       .  A
N267        C271   1.352   1_565  A
N267        H299   1.046       .  S
N268        C275   1.350       .  A
N268        C276   1.350   1_655  A
N269        C274   1.349       .  A
N269        C273   1.348   1_565  A
N269        H300   1.046       .  S
N270        C277   1.350       .  A
N270        C278   1.352   1_655  A
C271        C279   1.386       .  A
C271        C287   1.415       .  A
C272        C288   1.416       .  A
C272        C280   1.388       .  A
C273        C281   1.387       .  A
C273        C290   1.410       .  A
C274        C289   1.410       .  A
C274        C282   1.386       .  A
C275        C287   1.412       .  A
C275        C283   1.387       .  A
C276        C290   1.410       .  A
C276        C284   1.386   1_455  A
C277        C285   1.387       .  A
C277        C288   1.415       .  A
C278        C286   1.386   1_455  A
C278        C289   1.414       .  A
C279        C280   1.380   1_545  A
C279        H291   1.082       .  S
C280        H292   1.082       .  S
C281        C282   1.378   1_545  A
C281        H293   1.082       .  S
C282        H294   1.082       .  S
C283        C284   1.373       .  A
C283        H295   1.082       .  S
C284        H296   1.082   1_655  S
C285        C286   1.376       .  A
C285        H297   1.082       .  S
C286        H298   1.082   1_655  S
C287        C455   1.491       .  S
C288        C375   1.490       .  S
C289        C495   1.491       .  S
C290        C406   1.483       .  S
N301        N302   1.320       .  A
N301        N307   1.314       .  A
N301       Mn330   2.205       .  S
N302        C309   1.353       .  A
N303        N305   1.315       .  A
N303        N304   1.323       .  A
N303       Mn319   2.213   1_545  S
N304        C310   1.356       .  A
N305        N306   1.322       .  A
N305       Mn330   2.212   1_545  S
N306        C310   1.355       .  A
N307        N308   1.324       .  A
N307       Mn319   2.213       .  S
N308        C309   1.357       .  A
C309        C355   1.495       .  S
C310        C426   1.493       .  S
N311        N317   1.318       .  A
N311        N312   1.326       .  A
N311       Mn341   2.236   1_545  S
N312        C320   1.359       .  A
N313        N314   1.320       .  A
N313        N315   1.317       .  A
N313       Mn319   2.207       .  S
N314        C321   1.353       .  A
N315        N316   1.326       .  A
N315       Mn341   2.234       .  S
N316        C321   1.359       .  A
N317        N318   1.319       .  A
N317       Mn319   2.198   1_545  S
N318        C320   1.349       .  A
Mn319      Cl343   2.550       .  S
C320        C586   1.484       .  S
C321        C635   1.500       .  S
N322        N323   1.319       .  A
N322        N328   1.315       .  A
N322       Mn330   2.197   1_545  S
N323        C331   1.352       .  A
N324        N326   1.316       .  A
N324        N325   1.325       .  A
N324       Mn342   2.221       .  S
N325        C332   1.356       .  A
N326        N327   1.321       .  A
N326       Mn330   2.208       .  S
N327        C332   1.354       .  A
N328        N329   1.321       .  A
N328       Mn342   2.200   1_545  S
N329        C331   1.353       .  A
Mn330      Cl343   2.553       .  S
C331        C555   1.475       .  S
C332        C515   1.490       .  S
N333        N334   1.324       .  A
N333        N339   1.318       .  A
N333       Mn341   2.232       .  S
N334        C344   1.357       .  A
N335        N336   1.321       .  A
N335        N337   1.318       .  A
N335       Mn342   2.211   1_545  S
N336        C345   1.353       .  A
N337        N338   1.326       .  A
N337       Mn341   2.237   1_545  S
N338        C345   1.359       .  A
N339        N340   1.318       .  A
N339       Mn342   2.188       .  S
N340        C344   1.348       .  A
Mn341      Cl343   2.559       .  S
Mn342      Cl343   2.548       .  S
C344        C475   1.476       .  S
C345        C386   1.500       .  S
C346        C347   1.414       .  A
C346        C351   1.411       .  A
C347        C348   1.412       .  A
C347       Br359   1.930       .  S
C348        C349   1.410       .  A
C348       Br363   1.928       .  S
C349        C352   1.492       .  S
C349        C350   1.410       .  A
C350        C351   1.408       .  A
C350       Br358   1.928       .  S
C351       Br362   1.930       .  S
C352        C353   1.409       .  A
C352        C357   1.408       .  A
C353        C354   1.415       .  A
C353       Br364   1.928       .  S
C354        C355   1.418       .  A
C354       Br360   1.931       .  S
C355        C356   1.418       .  A
C356        C357   1.407       .  A
C356       Br365   1.934       .  S
C357       Br361   1.934       .  S
C366        C367   1.421       .  A
C366        C371   1.419       .  A
C367        C368   1.406       .  A
C367       Br379   1.934       .  S
C368        C369   1.405       .  A
C368       Br383   1.934       .  S
C369        C372   1.486       .  S
C369        C370   1.406       .  A
C370        C371   1.411       .  A
C370       Br378   1.928       .  S
C371       Br382   1.931       .  S
C372        C373   1.409       .  A
C372        C377   1.410       .  A
C373        C374   1.410       .  A
C373       Br384   1.927       .  S
C374        C375   1.411       .  A
C374       Br380   1.928       .  S
C375        C376   1.410       .  A
C376        C377   1.404       .  A
C376       Br385   1.931       .  S
C377       Br381   1.931       .  S
C386        C387   1.419       .  A
C386        C391   1.416       .  A
C387        C388   1.412       .  A
C387       Br399   1.932       .  S
C388        C389   1.409       .  A
C388       Br403   1.932       .  S
C389        C392   1.493       .  S
C389        C390   1.406       .  A
C390        C391   1.412       .  A
C390       Br398   1.931       .  S
C391       Br402   1.917       .  S
C392        C393   1.411       .  A
C392        C397   1.411       .  A
C393        C394   1.409       .  A
C393       Br404   1.929       .  S
C394        C395   1.410       .  A
C394       Br400   1.930       .  S
C395        C396   1.409       .  A
C396        C397   1.410       .  A
C396       Br405   1.929       .  S
C397       Br401   1.928       .  S
C406        C407   1.409       .  A
C406        C411   1.410       .  A
C407        C408   1.406       .  A
C407       Br419   1.928       .  S
C408        C409   1.408       .  A
C408       Br423   1.927       .  S
C409        C412   1.476       .  S
C409        C410   1.407       .  A
C410        C411   1.400       .  A
C410       Br418   1.932       .  S
C411       Br422   1.927       .  S
C412        C413   1.407       .  A
C412        C417   1.406       .  A
C413        C414   1.402       .  A
C413       Br424   1.934       .  S
C414        C415   1.415       .  A
C414       Br420   1.934       .  S
C415        C416   1.415       .  A
C416        C417   1.406       .  A
C416       Br425   1.931       .  S
C417       Br421   1.929       .  S
C426        C427   1.417       .  A
C426        C431   1.415       .  A
C427        C428   1.414       .  A
C427       Br439   1.931       .  S
C428        C429   1.409       .  A
C428       Br443   1.929       .  S
C429        C432   1.494       .  S
C429        C430   1.410       .  A
C430        C431   1.410       .  A
C430       Br438   1.933       .  S
C431       Br442   1.932       .  S
C432        C433   1.411       .  A
C432        C437   1.411       .  A
C433        C434   1.410       .  A
C433       Br444   1.928       .  S
C434        C435   1.409       .  A
C434       Br440   1.928       .  S
C435        C436   1.410       .  A
C436        C437   1.411       .  A
C436       Br445   1.929       .  S
C437       Br441   1.928       .  S
C446        C447   1.417       .  A
C446        C451   1.416       .  A
C447        C448   1.409       .  A
C447       Br459   1.932       .  S
C448        C449   1.408       .  A
C448       Br463   1.930       .  S
C449        C452   1.487       .  S
C449        C450   1.408       .  A
C450        C451   1.407       .  A
C450       Br458   1.931       .  S
C451       Br462   1.932       .  S
C452        C453   1.409       .  A
C452        C457   1.411       .  A
C453        C454   1.409       .  A
C453       Br464   1.929       .  S
C454        C455   1.412       .  A
C454       Br460   1.929       .  S
C455        C456   1.411       .  A
C456        C457   1.406       .  A
C456       Br465   1.932       .  S
C457       Br461   1.931       .  S
C466        C467   1.410       .  A
C466        C471   1.411       .  A
C467        C468   1.410       .  A
C467       Br479   1.926       .  S
C468        C469   1.409       .  A
C468       Br483   1.929       .  S
C469        C472   1.488       .  S
C469        C470   1.410       .  A
C470        C471   1.410       .  A
C470       Br478   1.930       .  S
C471       Br482   1.929       .  S
C472        C473   1.410       .  A
C472        C477   1.411       .  A
C473        C474   1.410       .  A
C473       Br484   1.926       .  S
C474        C475   1.408       .  A
C474       Br480   1.927       .  S
C475        C476   1.409       .  A
C476        C477   1.407       .  A
C476       Br485   1.931       .  S
C477       Br481   1.932       .  S
C486        C487   1.417       .  A
C486        C491   1.416       .  A
C487        C488   1.409       .  A
C487       Br499   1.931       .  S
C488        C489   1.407       .  A
C488       Br503   1.929       .  S
C489        C492   1.483       .  S
C489        C490   1.407       .  A
C490        C491   1.405       .  A
C490       Br498   1.932       .  S
C491       Br502   1.933       .  S
C492        C493   1.410       .  A
C492        C497   1.407       .  A
C493        C494   1.409       .  A
C493       Br504   1.927       .  S
C494        C495   1.410       .  A
C494       Br500   1.928       .  S
C495        C496   1.413       .  A
C496        C497   1.404       .  A
C496       Br505   1.927       .  S
C497       Br501   1.933       .  S
C506        C507   1.410       .  A
C506        C511   1.411       .  A
C507        C508   1.413       .  A
C507       Br519   1.927       .  S
C508        C509   1.412       .  A
C508       Br523   1.928       .  S
C509        C512   1.495       .  S
C509        C510   1.410       .  A
C510        C511   1.410       .  A
C510       Br518   1.928       .  S
C511       Br522   1.930       .  S
C512        C513   1.410       .  A
C512        C517   1.411       .  A
C513        C514   1.409       .  A
C513       Br524   1.932       .  S
C514        C515   1.413       .  A
C514       Br520   1.931       .  S
C515        C516   1.414       .  A
C516        C517   1.416       .  A
C516       Br525   1.929       .  S
C517       Br521   1.927       .  S
C526        C527   1.417       .  A
C526        C531   1.415       .  A
C527        C528   1.408       .  A
C527       Br539   1.933       .  S
C528        C529   1.409       .  A
C528       Br543   1.931       .  S
C529        C532   1.490       .  S
C529        C530   1.411       .  A
C530        C531   1.408       .  A
C530       Br538   1.932       .  S
C531       Br542   1.932       .  S
C532        C533   1.410       .  A
C532        C537   1.412       .  A
C533        C534   1.406       .  A
C533       Br544   1.932       .  S
C534        C535   1.414       .  A
C534       Br540   1.933       .  S
C535        C536   1.412       .  A
C536        C537   1.410       .  A
C536       Br545   1.930       .  S
C537       Br541   1.930       .  S
C546        C547   1.408       .  A
C546        C551   1.409       .  A
C547        C548   1.406       .  A
C547       Br559   1.928       .  S
C548        C549   1.409       .  A
C548       Br563   1.929       .  S
C549        C552   1.483       .  S
C549        C550   1.409       .  A
C550        C551   1.407       .  A
C550       Br558   1.929       .  S
C551       Br562   1.929       .  S
C552        C553   1.409       .  A
C552        C557   1.408       .  A
C553        C554   1.406       .  A
C553       Br564   1.931       .  S
C554        C555   1.411       .  A
C554       Br560   1.932       .  S
C555        C556   1.410       .  A
C556        C557   1.408       .  A
C556       Br565   1.929       .  S
C557       Br561   1.928       .  S
C566        C567   1.415       .  A
C566        C571   1.414       .  A
C567        C568   1.405       .  A
C567       Br579   1.933       .  S
C568        C569   1.409       .  A
C568       Br583   1.933       .  S
C569        C572   1.481       .  S
C569        C570   1.408       .  A
C570        C571   1.406       .  A
C570       Br578   1.930       .  S
C571       Br582   1.932       .  S
C572        C573   1.410       .  A
C572        C577   1.409       .  A
C573        C574   1.406       .  A
C573       Br584   1.930       .  S
C574        C575   1.411       .  A
C574       Br580   1.930       .  S
C575        C576   1.412       .  A
C576        C577   1.403       .  A
C576       Br585   1.932       .  S
C577       Br581   1.931       .  S
C586        C587   1.413       .  A
C586        C591   1.409       .  A
C587        C588   1.409       .  A
C587       Br599   1.931       .  S
C588        C589   1.411       .  A
C588       Br603   1.932       .  S
C589        C592   1.488       .  S
C589        C590   1.408       .  A
C590        C591   1.409       .  A
C590       Br598   1.928       .  S
C591       Br602   1.919       .  S
C592        C593   1.411       .  A
C592        C597   1.410       .  A
C593        C594   1.409       .  A
C593       Br604   1.929       .  S
C594        C595   1.409       .  A
C594       Br600   1.928       .  S
C595        C596   1.408       .  A
C596        C597   1.407       .  A
C596       Br605   1.928       .  S
C597       Br601   1.929       .  S
C606        C607   1.414       .  A
C606        C611   1.413       .  A
C607        C608   1.407       .  A
C607       Br619   1.933       .  S
C608        C609   1.410       .  A
C608       Br623   1.932       .  S
C609        C612   1.486       .  S
C609        C610   1.408       .  A
C610        C611   1.407       .  A
C610       Br618   1.929       .  S
C611       Br622   1.931       .  S
C612        C613   1.409       .  A
C612        C617   1.409       .  A
C613        C614   1.406       .  A
C613       Br624   1.932       .  S
C614        C615   1.413       .  A
C614       Br620   1.928       .  S
C615        C616   1.412       .  A
C616        C617   1.409       .  A
C616       Br625   1.928       .  S
C617       Br621   1.929       .  S
C626        C627   1.411       .  A
C626        C631   1.410       .  A
C627        C628   1.412       .  A
C627       Br639   1.929       .  S
C628        C629   1.412       .  A
C628       Br643   1.929       .  S
C629        C632   1.495       .  S
C629        C630   1.411       .  A
C630        C631   1.411       .  A
C630       Br638   1.928       .  S
C631       Br642   1.929       .  S
C632        C633   1.409       .  A
C632        C637   1.408       .  A
C633        C634   1.415       .  A
C633       Br644   1.929       .  S
C634        C635   1.418       .  A
C634       Br640   1.927       .  S
C635        C636   1.420       .  A
C636        C637   1.410       .  A
C636       Br645   1.934       .  S
C637       Br641   1.933       .  S
C646        C647   1.414       .  A
C646        C651   1.417       .  A
C647        C648   1.407       .  A
C647       Br659   1.931       .  S
C648        C649   1.407       .  A
C648       Br663   1.928       .  S
C649        C652   1.484       .  S
C649        C650   1.409       .  A
C650        C651   1.407       .  A
C650       Br658   1.934       .  S
C651       Br662   1.934       .  S
C652        C653   1.409       .  A
C652        C657   1.410       .  A
C653        C654   1.401       .  A
C653       Br664   1.934       .  S
C654        C655   1.411       .  A
C654       Br660   1.930       .  S
C655        C656   1.412       .  A
C656        C657   1.410       .  A
C656       Br665   1.928       .  S
C657       Br661   1.927       .  S
C666        C667   1.408       .  A
C666        C671   1.410       .  A
C667        C668   1.410       .  A
C667       Br679   1.929       .  S
C668        C669   1.414       .  A
C668       Br683   1.932       .  S
C669        C672   1.496       .  S
C669        C670   1.412       .  A
C670        C671   1.413       .  A
C670       Br678   1.929       .  S
C671       Br682   1.923       .  S
C672        C673   1.412       .  A
C672        C677   1.412       .  A
C673        C674   1.413       .  A
C673       Br684   1.928       .  S
C674        C675   1.412       .  A
C674       Br680   1.928       .  S
C675        C676   1.409       .  A
C676        C677   1.409       .  A
C676       Br685   1.929       .  S
C677       Br681   1.929       .  S
C686        C687   1.414       .  A
C686        C691   1.417       .  A
C687        C688   1.409       .  A
C687       Br699   1.931       .  S
C688        C689   1.408       .  A
C688       Br703   1.928       .  S
C689        C692   1.483       .  S
C689        C690   1.408       .  A
C690        C691   1.405       .  A
C690       Br698   1.935       .  S
C691       Br702   1.935       .  S
C692        C693   1.409       .  A
C692        C697   1.409       .  A
C693        C694   1.405       .  A
C693       Br704   1.931       .  S
C694        C695   1.410       .  A
C694       Br700   1.930       .  S
C695        C696   1.408       .  A
C696        C697   1.408       .  A
C696       Br705   1.927       .  S
C697       Br701   1.928       .  S
C706        C707   1.411       .  A
C706        C711   1.413       .  A
C707        C708   1.408       .  A
C707       Br719   1.929       .  S
C708        C709   1.409       .  A
C708       Br723   1.930       .  S
C709        C712   1.486       .  S
C709        C710   1.408       .  A
C710        C711   1.409       .  A
C710       Br718   1.929       .  S
C711       Br722   1.929       .  S
C712        C713   1.410       .  A
C712        C717   1.408       .  A
C713        C714   1.406       .  A
C713       Br724   1.932       .  S
C714        C715   1.410       .  A
C714       Br720   1.932       .  S
C715        C716   1.410       .  A
C716        C717   1.410       .  A
C716       Br725   1.925       .  S
C717       Br721   1.928       .  S
C726        C727   1.412       .  A
C726        C731   1.411       .  A
C727        C728   1.412       .  A
C727       Br739   1.929       .  S
C728        C729   1.411       .  A
C728       Br743   1.929       .  S
C729        C732   1.493       .  S
C729        C730   1.410       .  A
C730        C731   1.410       .  A
C730       Br738   1.928       .  S
C731       Br742   1.928       .  S
C732        C733   1.411       .  A
C732        C737   1.411       .  A
C733        C734   1.409       .  A
C733       Br744   1.930       .  S
C734        C735   1.410       .  A
C734       Br740   1.931       .  S
C735        C736   1.410       .  A
C736        C737   1.412       .  A
C736       Br745   1.928       .  S
C737       Br741   1.927       .  S
C746        C747   1.416       .  A
C746        C751   1.416       .  A
C747        C748   1.410       .  A
C747       Br759   1.929       .  S
C748        C749   1.408       .  A
C748       Br763   1.930       .  S
C749        C752   1.491       .  S
C749        C750   1.409       .  A
C750        C751   1.410       .  A
C750       Br758   1.931       .  S
C751       Br762   1.931       .  S
C752        C753   1.413       .  A
C752        C757   1.410       .  A
C753        C754   1.408       .  A
C753       Br764   1.931       .  S
C754        C755   1.407       .  A
C754       Br760   1.930       .  S
C755        C756   1.409       .  A
C756        C757   1.410       .  A
C756       Br765   1.925       .  S
C757       Br761   1.928       .  S
C766        C767   1.412       .  A
C766        C771   1.408       .  A
C767        C768   1.401       .  A
C767       Br779   1.932       .  S
C768        C769   1.408       .  A
C768       Br783   1.934       .  S
C769        C772   1.475       .  S
C769        C770   1.408       .  A
C770        C771   1.405       .  A
C770       Br778   1.927       .  S
C771       Br782   1.928       .  S
C772        C773   1.407       .  A
C772        C777   1.406       .  A
C773        C774   1.402       .  A
C773       Br784   1.933       .  S
C774        C775   1.416       .  A
C774       Br780   1.935       .  S
C775        C776   1.414       .  A
C776        C777   1.404       .  A
C776       Br785   1.932       .  S
C777       Br781   1.929       .  S
C786        C787   1.409       .  A
C786        C791   1.410       .  A
C787        C788   1.409       .  A
C787       Br799   1.929       .  S
C788        C789   1.411       .  A
C788       Br803   1.928       .  S
C789        C792   1.487       .  S
C789        C790   1.409       .  A
C790        C791   1.407       .  A
C790       Br798   1.929       .  S
C791       Br802   1.930       .  S
C792        C793   1.409       .  A
C792        C797   1.408       .  A
C793        C794   1.408       .  A
C793       Br804   1.932       .  S
C794        C795   1.414       .  A
C794       Br800   1.932       .  S
C795        C796   1.413       .  A
C796        C797   1.411       .  A
C796       Br805   1.929       .  S
C797       Br801   1.928       .  S
C806        C807   1.412       .  A
C806        C811   1.413       .  A
C807        C808   1.401       .  A
C807       Br819   1.933       .  S
C808        C809   1.408       .  A
C808       Br823   1.932       .  S
C809        C812   1.480       .  S
C809        C810   1.408       .  A
C810        C811   1.407       .  A
C810       Br818   1.929       .  S
C811       Br822   1.930       .  S
C812        C813   1.410       .  A
C812        C817   1.407       .  A
C813        C814   1.404       .  A
C813       Br824   1.934       .  S
C814        C815   1.413       .  A
C814       Br820   1.933       .  S
C815        C816   1.413       .  A
C816        C817   1.405       .  A
C816       Br825   1.932       .  S
C817       Br821   1.930       .  S
C826        C827   1.414       .  A
C826        C831   1.414       .  A
C827        C828   1.410       .  A
C827       Br839   1.924       .  S
C828        C829   1.406       .  A
C828       Br843   1.930       .  S
C829        C832   1.489       .  S
C829        C830   1.411       .  A
C830        C831   1.411       .  A
C830       Br838   1.931       .  S
C831       Br842   1.931       .  S
C832        C833   1.409       .  A
C832        C837   1.411       .  A
C833        C834   1.407       .  A
C833       Br844   1.928       .  S
C834        C835   1.409       .  A
C834       Br840   1.928       .  S
C835        C836   1.409       .  A
C836        C837   1.410       .  A
C836       Br845   1.927       .  S
C837       Br841   1.928       .  S
C846        C847   1.410       .  A
C846        C851   1.412       .  A
C847        C848   1.406       .  A
C847       Br859   1.928       .  S
C848        C849   1.407       .  A
C848       Br863   1.928       .  S
C849        C852   1.477       .  S
C849        C850   1.409       .  A
C850        C851   1.403       .  A
C850       Br858   1.934       .  S
C851       Br862   1.928       .  S
C852        C853   1.409       .  A
C852        C857   1.408       .  A
C853        C854   1.403       .  A
C853       Br864   1.931       .  S
C854        C855   1.410       .  A
C854       Br860   1.931       .  S
C855        C856   1.409       .  A
C856        C857   1.403       .  A
C856       Br865   1.930       .  S
C857       Br861   1.929       .  S
C866        C867   1.410       .  A
C866        C871   1.410       .  A
C867        C868   1.409       .  A
C867       Br879   1.930       .  S
C868        C869   1.411       .  A
C868       Br883   1.928       .  S
C869        C872   1.492       .  S
C869        C870   1.411       .  A
C870        C871   1.411       .  A
C870       Br878   1.929       .  S
C871       Br882   1.928       .  S
C872        C873   1.411       .  A
C872        C877   1.410       .  A
C873        C874   1.410       .  A
C873       Br884   1.930       .  S
C874        C875   1.410       .  A
C874       Br880   1.930       .  S
C875        C876   1.410       .  A
C876        C877   1.412       .  A
C876       Br885   1.924       .  S
C877       Br881   1.928       .  S
C886        C887   1.413       .  A
C886        C891   1.413       .  A
C887        C888   1.404       .  A
C887       Br899   1.932       .  S
C888        C889   1.408       .  A
C888       Br903   1.932       .  S
C889        C892   1.477       .  S
C889        C890   1.407       .  A
C890        C891   1.405       .  A
C890       Br898   1.931       .  S
C891       Br902   1.931       .  S
C892        C893   1.408       .  A
C892        C897   1.408       .  A
C893        C894   1.403       .  A
C893       Br904   1.931       .  S
C894        C895   1.411       .  A
C894       Br900   1.931       .  S
C895        C896   1.412       .  A
C896        C897   1.403       .  A
C896       Br905   1.932       .  S
C897       Br901   1.930       .  S
C906        C907   1.409       .  A
C906        C911   1.411       .  A
C907        C908   1.407       .  A
C907       Br919   1.929       .  S
C908        C909   1.410       .  A
C908       Br923   1.930       .  S
C909        C912   1.484       .  S
C909        C910   1.409       .  A
C910        C911   1.407       .  A
C910       Br918   1.929       .  S
C911       Br922   1.929       .  S
C912        C913   1.408       .  A
C912        C917   1.410       .  A
C913        C914   1.408       .  A
C913       Br924   1.928       .  S
C914        C915   1.408       .  A
C914       Br920   1.924       .  S
C915        C916   1.408       .  A
C916        C917   1.406       .  A
C916       Br925   1.929       .  S
C917       Br921   1.931       .  S
C926        C927   1.416       .  A
C926        C931   1.415       .  A
C927        C928   1.412       .  A
C927       Br939   1.931       .  S
C928        C929   1.408       .  A
C928       Br943   1.928       .  S
C929        C932   1.490       .  S
C929        C930   1.410       .  A
C930        C931   1.409       .  A
C930       Br938   1.933       .  S
C931       Br942   1.932       .  S
C932        C933   1.410       .  A
C932        C937   1.410       .  A
C933        C934   1.409       .  A
C933       Br944   1.929       .  S
C934        C935   1.411       .  A
C934       Br940   1.929       .  S
C935        C936   1.409       .  A
C936        C937   1.410       .  A
C936       Br945   1.927       .  S
C937       Br941   1.928       .  S
C946        C947   1.410       .  A
C946        C951   1.410       .  A
C947        C948   1.407       .  A
C947       Br959   1.929       .  S
C948        C949   1.409       .  A
C948       Br963   1.929       .  S
C949        C952   1.488       .  S
C949        C950   1.410       .  A
C950        C951   1.410       .  A
C950       Br958   1.929       .  S
C951       Br962   1.928       .  S
C952        C953   1.410       .  A
C952        C957   1.406       .  A
C953        C954   1.410       .  A
C953       Br964   1.932       .  S
C954        C955   1.416       .  A
C954       Br960   1.932       .  S
C955        C956   1.418       .  A
C956        C957   1.409       .  A
C956       Br965   1.932       .  S
C957       Br961   1.930       .  S
C966        C967   1.414       .  A
C966        C971   1.414       .  A
C967        C968   1.412       .  A
C967       Br979   1.931       .  S
C968        C969   1.411       .  A
C968       Br983   1.931       .  S
C969        C972   1.495       .  S
C969        C970   1.409       .  A
C970        C971   1.413       .  A
C970       Br978   1.928       .  S
C971       Br982   1.930       .  S
C972        C973   1.411       .  A
C972        C977   1.411       .  A
C973        C974   1.410       .  A
C973       Br984   1.929       .  S
C974        C975   1.409       .  A
C974       Br980   1.928       .  S
C975        C976   1.412       .  A
C976        C977   1.412       .  A
C976       Br985   1.929       .  S
C977       Br981   1.927       .  S
C986        C987   1.411       .  A
C986        C991   1.408       .  A
C987        C988   1.408       .  A
C987       Br999   1.929       .  S
C988        C989   1.409       .  A
C988      Br1003   1.929       .  S
C989        C992   1.486       .  S
C989        C990   1.411       .  A
C990        C991   1.407       .  A
C990       Br998   1.929       .  S
C991      Br1002   1.930       .  S
C992        C993   1.409       .  A
C992        C997   1.409       .  A
C993        C994   1.411       .  A
C993      Br1004   1.928       .  S
C994        C995   1.410       .  A
C994      Br1000   1.924       .  S
C995        C996   1.410       .  A
C996        C997   1.406       .  A
C996      Br1005   1.928       .  S
C997      Br1001   1.931       .  S
C1006      C1007   1.413       .  A
C1006      C1011   1.412       .  A
C1007      C1008   1.408       .  A
C1007     Br1019   1.930       .  S
C1008      C1009   1.408       .  A
C1008     Br1023   1.929       .  S
C1009      C1012   1.487       .  S
C1009      C1010   1.409       .  A
C1010      C1011   1.409       .  A
C1010     Br1018   1.929       .  S
C1011     Br1022   1.930       .  S
C1012      C1013   1.411       .  A
C1012      C1017   1.409       .  A
C1013      C1014   1.407       .  A
C1013     Br1024   1.932       .  S
C1014      C1015   1.407       .  A
C1014     Br1020   1.930       .  S
C1015      C1016   1.409       .  A
C1016      C1017   1.410       .  A
C1016     Br1025   1.926       .  S
C1017     Br1021   1.927       .  S
C1026      C1027   1.409       .  A
C1026      C1031   1.410       .  A
C1027      C1028   1.410       .  A
C1027     Br1039   1.929       .  S
C1028      C1029   1.411       .  A
C1028     Br1043   1.929       .  S
C1029      C1032   1.491       .  S
C1029      C1030   1.410       .  A
C1030      C1031   1.409       .  A
C1030     Br1038   1.928       .  S
C1031     Br1042   1.929       .  S
C1032      C1033   1.411       .  A
C1032      C1037   1.409       .  A
C1033      C1034   1.411       .  A
C1033     Br1044   1.931       .  S
C1034      C1035   1.412       .  A
C1034     Br1040   1.930       .  S
C1035      C1036   1.409       .  A
C1036      C1037   1.410       .  A
C1036     Br1045   1.922       .  S
C1037     Br1041   1.928       .  S
C1046      C1047   1.417       .  A
C1046      C1051   1.415       .  A
C1047      C1048   1.415       .  A
C1047     Br1059   1.930       .  S
C1048      C1049   1.409       .  A
C1048     Br1063   1.929       .  S
C1049      C1052   1.491       .  S
C1049      C1050   1.409       .  A
C1050      C1051   1.407       .  A
C1050     Br1058   1.933       .  S
C1051     Br1062   1.933       .  S
C1052      C1053   1.412       .  A
C1052      C1057   1.409       .  A
C1053      C1054   1.411       .  A
C1053     Br1064   1.929       .  S
C1054      C1055   1.409       .  A
C1054     Br1060   1.928       .  S
C1055      C1056   1.411       .  A
C1056      C1057   1.408       .  A
C1056     Br1065   1.930       .  S
C1057     Br1061   1.928       .  S
