geometry optimzed in LAMMPS
_audit_creation_date              2020-11-30 
_audit_creation_method            'lammps2cif' 
_symmetry_space_group_name_H-M    'P1' 
_symmetry_Int_Tables_number       1 
_symmetry_cell_setting            triclinic 
loop_ 
_symmetry_equiv_pos_as_xyz 
  x,y,z 
_cell_length_a                    41.18558167 
_cell_length_b                    41.41313727122737 
_cell_length_c                    72.12083517964562 
_cell_angle_alpha                 89.95896752041752 
_cell_angle_beta                  89.9379559154866 
_cell_angle_gamma                 120.05226475778306 
loop_ 
_atom_site_label 
_atom_site_type_symbol 
_atom_site_fract_x 
_atom_site_fract_y 
_atom_site_fract_z 
_atom_site_charge 
O1          O  0.10594455  0.31480557  0.32546213    -0.87500
C2          C  0.18543888  0.35981617  0.28537293     0.88500
Mg3        Mg  0.10409117  0.34460793  0.34951132     1.58100
O4          O  0.18946857  0.29545996  0.31596153    -0.87300
O5          O  0.10130122  0.26185858  0.31753100    -0.74600
C6          C  0.27402351  0.42179758  0.38580202     0.93500
O7          O  0.15158054  0.39940355  0.31274658    -0.74400
O8          O  0.24609342  0.42711454  0.38561571    -0.81900
Mg9        Mg  0.11240734  0.34208800  0.29936474     1.58000
C10         C  0.29380901  0.32581739  0.33872755     0.93500
O11         O  0.07270979  0.28908918  0.28350386    -0.80200
H12         H  0.16632460  0.24494392  0.32769549    -0.05500
C13         C  0.25709908  0.40657566  0.33132365     0.88400
O14         O  0.12828274  0.31663139  0.36779662    -0.74700
O15         O  0.15819843  0.33357449  0.29303634    -0.87500
O16         O  0.27554787  0.31856466  0.32364829    -0.80300
C17         C  0.22286527  0.28979097  0.27107411     0.93600
C18         C  0.07195182  0.26358871  0.27332046     0.93400
Mg19       Mg  0.23541411  0.34511085  0.35875255     1.58000
O20         O  0.27618995  0.39892758  0.37470654    -0.80200
O21         O  0.19658107  0.28759114  0.34550853    -0.74400
O22         O  0.18806090  0.27991674  0.27196881    -0.80300
O23         O  0.06209863  0.34890045  0.30549543    -0.82000
O24         O  0.15845297  0.40293420  0.38656808    -0.80300
C25         C  0.18366595  0.27480108  0.32947481     0.87900
O26         O  0.18891497  0.35230832  0.36491310    -0.87400
O27         O  0.24171366  0.37228937  0.33250272    -0.87600
O28         O  0.24612263  0.42485134  0.34105252    -0.74600
Mg29       Mg  0.14626317  0.27623762  0.29507431     1.58000
O30         O  0.24604113  0.31076155  0.28331965    -0.82000
H31         H  0.06733891  0.26631703  0.33648626    -0.05700
O32         O  0.15826252  0.39096492  0.34228184    -0.87300
H33         H  0.18206166  0.44166642  0.33071317    -0.05500
H34         H  0.16599548  0.30869079  0.38220788    -0.05700
C35         C  0.16446464  0.41188420  0.32883045     0.87800
C36         C  0.09032837  0.28055327  0.32688183     0.88400
C37         C  0.16152158  0.32564091  0.37227789     0.88500
H38         H  0.28003154  0.42122404  0.32173716    -0.05700
O39         O  0.21871248  0.36900307  0.28982804    -0.74700
Mg40       Mg  0.20053810  0.40911545  0.36344723     1.58000
H41         H  0.18080875  0.37630506  0.27521910    -0.05700
C42         C  0.05450821  0.36203372  0.31969873     0.93500
O43         O  0.10075434  0.37436103  0.37495949    -0.81900
C44         C  0.12382464  0.39334069  0.38766343     0.93500
O45         O  0.09870233  0.25636475  0.27351994    -0.81900
Mg46       Mg  0.24352510  0.34204577  0.30840251     1.58200
O47         O  0.07432553  0.37029245  0.33428415    -0.80300
O48         O  0.28508981  0.33829369  0.35277519    -0.82000
C49         C  0.33417785  0.18339759  0.18121875     0.03100
C50         C  0.33553261  0.14993531  0.18286395     0.03000
C51         C  0.35485648  0.14152621  0.16932544    -0.17500
C52         C  0.37350872  0.16575055  0.15445299     0.03100
C53         C  0.37319478  0.19965452  0.15313539     0.03000
C54         C  0.35348775  0.20792633  0.16645408    -0.17500
H55         H  0.35313611  0.23385530  0.16527587     0.05100
H56         H  0.35535100  0.11564928  0.17036841     0.05100
C57         C  0.82823736  0.13132483  0.18024011     0.03100
C58         C  0.86260836  0.16535509  0.17954257     0.03000
C59         C  0.86778239  0.19197309  0.16600515    -0.17500
C60         C  0.83986365  0.18541860  0.15283644     0.03100
C61         C  0.80562977  0.15077675  0.15329311     0.03000
C62         C  0.80023111  0.12469156  0.16727641    -0.17500
H63         H  0.77404822  0.09834309  0.16783773     0.05100
H64         H  0.89412260  0.21817482  0.16565005     0.05100
O65         O  0.23685978  0.87881623  0.34040884    -0.87500
C66         C  0.14975343  0.83197861  0.37685763     0.88500
Mg67       Mg  0.23984190  0.91349776  0.31755858     1.58100
O68         O  0.15507640  0.77090451  0.34459813    -0.87300
O69         O  0.24232582  0.83003816  0.34640093    -0.74600
C70         C  0.07307507  0.81779045  0.27637032     0.93500
O71         O  0.18413450  0.91090200  0.35331197    -0.74400
O72         O  0.09955364  0.85163064  0.27761901    -0.81900
Mg73       Mg  0.22320949  0.89292548  0.36686018     1.58000
C74         C  0.05543027  0.69497144  0.31745789     0.93500
O75         O  0.26223497  0.87990851  0.38325822    -0.80200
H76         H  0.18232772  0.74747791  0.33291356    -0.05500
C77         C  0.08479963  0.81099350  0.32986726     0.88400
O78         O  0.21973064  0.86454057  0.29724063    -0.74700
O79         O  0.17898919  0.83650140  0.36972612    -0.87500
O80         O  0.07082391  0.70500571  0.33331712    -0.80300
C81         C  0.11819192  0.72556648  0.38796570     0.93600
C82         C  0.26381419  0.85448856  0.39242577     0.93400
Mg83       Mg  0.11335565  0.77820605  0.30143359     1.58000
O84         O  0.07313690  0.79176781  0.28581789    -0.80200
O85         O  0.15288862  0.76026320  0.31467694    -0.74400
O86         O  0.15192222  0.75278708  0.38843755    -0.80300
O87         O  0.27147720  0.95237782  0.36455142    -0.82000
O88         O  0.18778666  0.91931283  0.27936961    -0.80300
C89         C  0.16393306  0.75881918  0.33097257     0.87900
O90         O  0.15848478  0.83472026  0.29831165    -0.87400
O91         O  0.10101177  0.79288698  0.32801842    -0.87600
O92         O  0.09637054  0.84211182  0.32172099    -0.74600
Mg93       Mg  0.19515193  0.79419897  0.36702058     1.58000
O94         O  0.09603714  0.72199779  0.37483052    -0.82000
H95         H  0.27805918  0.87248961  0.32966820    -0.05700
O96         O  0.18340930  0.90119722  0.32339023    -0.87300
H97         H  0.15562330  0.92430304  0.33481003    -0.05500
H98         H  0.18674730  0.82001334  0.28099258    -0.05700
C99         C  0.17395186  0.91292396  0.33692310     0.87800
C100        C  0.25367728  0.86132892  0.33853486     0.88400
C101        C  0.18798394  0.83907613  0.29156728     0.88500
H102        H  0.06062613  0.80043919  0.33885525    -0.05700
O103        O  0.11789292  0.80665078  0.37130373    -0.74700
Mg104      Mg  0.14359673  0.87776742  0.30089474     1.58000
H105        H  0.15132318  0.85089263  0.38760023    -0.05700
C106        C  0.28284578  0.97599139  0.35139395     0.93500
O107        O  0.24302746  0.94976850  0.29369721    -0.81900
C108        C  0.22157835  0.94654229  0.28029622     0.93500
O109        O  0.23913686  0.82015291  0.39037534    -0.81900
Mg110      Mg  0.09859604  0.75819669  0.35087613     1.58200
O111        O  0.26875672  0.96698791  0.33521134    -0.80300
O112        O  0.06488128  0.71810452  0.30411442    -0.82000
O113        O  0.65040247  0.76889968  0.33888726    -0.87500
C114        C  0.68838113  0.85206503  0.37724956     0.88500
Mg115      Mg  0.68395611  0.76696568  0.31652369     1.58100
O116        O  0.62487709  0.85134721  0.34450243    -0.87300
O117        O  0.59593423  0.76439600  0.34419604    -0.74600
C118        C  0.75968826  0.93599077  0.27865990     0.93500
O119        O  0.73443956  0.81890086  0.35412878    -0.74400
O120        O  0.76659806  0.90928919  0.28000724    -0.81900
Mg121      Mg  0.67566856  0.77947734  0.36592078     1.58000
C122        C  0.65229793  0.95264143  0.31819330     0.93500
O123        O  0.62158617  0.73896031  0.38037343    -0.80200
H124        H  0.57538358  0.82531265  0.33151753    -0.05500
C125        C  0.73719473  0.92076356  0.33224416     0.88400
O126        O  0.65782263  0.78983559  0.29605626    -0.74700
O127        O  0.66412840  0.82388178  0.36929898    -0.87500
O128        O  0.64581312  0.93727024  0.33414507    -0.80300
C129        C  0.61545268  0.88474445  0.38872309     0.93600
C130        C  0.59380496  0.73643904  0.38931792     0.93400
Mg131      Mg  0.67851028  0.89535107  0.30249318     1.58000
O132        O  0.73390257  0.93670652  0.28813353    -0.80200
O133        O  0.61966986  0.85545037  0.31439499    -0.74400
O134        O  0.60882396  0.85106561  0.38849800    -0.80300
O135        O  0.68631588  0.73142726  0.36318225    -0.82000
O136        O  0.74604716  0.82223519  0.28075242    -0.80300
C137        C  0.60539034  0.84356632  0.33035111     0.87900
O138        O  0.68965356  0.85034832  0.29915601    -0.87400
O139        O  0.70300172  0.90552897  0.32961161    -0.87600
O140        O  0.75717723  0.90937733  0.32428489    -0.74600
Mg141      Mg  0.60612939  0.80912485  0.36602065     1.58000
O142        O  0.63343300  0.90769043  0.37572949    -0.82000
H143        H  0.60331741  0.73027136  0.32667586    -0.05700
O144        O  0.72848685  0.82222201  0.32409788    -0.87300
H145        H  0.77837443  0.84806324  0.33669833    -0.05500
H146        H  0.64900379  0.82533249  0.28030714    -0.05700
C147        C  0.74836895  0.83012442  0.33808580     0.87800
C148        C  0.61618523  0.75333256  0.33625885     0.88400
C149        C  0.66524162  0.82226777  0.29121744     0.88500
H150        H  0.75029298  0.94387997  0.34176779    -0.05700
O151        O  0.69548541  0.88442630  0.37244285    -0.74700
Mg152      Mg  0.74716151  0.86417258  0.30266797     1.58000
H153        H  0.70474531  0.84916373  0.38814538    -0.05700
C154        C  0.69911566  0.72029530  0.35019961     0.93500
O155        O  0.71862844  0.76502076  0.29285287    -0.81900
C156        C  0.73841332  0.78825316  0.28031952     0.93500
O157        O  0.58510951  0.76199358  0.38824486    -0.81900
Mg158      Mg  0.66875740  0.90668744  0.35197297     1.58200
O159        O  0.70564689  0.73509231  0.33412949    -0.80300
O160        O  0.66681825  0.94316149  0.30526841    -0.82000
C161        C  0.87304948  0.69200239  0.17946791     0.03100
C162        C  0.83723744  0.68884690  0.18038383     0.03000
C163        C  0.81024436  0.66800443  0.16687560    -0.17500
C164        C  0.81742070  0.64912409  0.15270659     0.03100
C165        C  0.85285178  0.65132205  0.15204865     0.03000
C166        C  0.88030485  0.67309830  0.16527526    -0.17500
H167        H  0.90751961  0.67502245  0.16461506     0.05100
H168        H  0.78317248  0.66642649  0.16744159     0.05100
O169        O  0.46150164  0.02611334  0.00078242    -0.87500
C170        C  0.48921408  0.97847960  0.04289936     0.88500
Mg171      Mg  0.42926711  0.99670619  0.97663679     1.58100
O172        O  0.56088861  0.03903399  0.01244919    -0.87300
O173        O  0.51175754  0.07743769  0.00898853    -0.74600
C174        C  0.51472355  0.90904386  0.94548830     0.93500
O175        O  0.41648140  0.94206368  0.01443141    -0.74400
O176        O  0.48270148  0.90658889  0.94429568    -0.81900
Mg177      Mg  0.43852627  0.00065041  0.02704037     1.58000
C178        C  0.63010333  0.00063633  0.99318391     0.93500
O179        O  0.45424735  0.05536638  0.04216022    -0.80200
H180        H  0.59297427  0.08905432  0.00070455    -0.05500
C181        C  0.51050824  0.92723281  0.99897225     0.88400
O182        O  0.48277471  0.02080108  0.95899333    -0.74700
O183        O  0.49059332  0.00496685  0.03435359    -0.87500
O184        O  0.62017879  0.01383970  0.00644909    -0.80300
C185        C  0.59736346  0.04544852  0.05783966     0.93600
C186        C  0.47971433  0.07856782  0.05297581     0.93400
Mg187      Mg  0.55615553  0.98610467  0.97129945     1.58000
O188        O  0.53915894  0.93036111  0.95722820    -0.80200
O189        O  0.57898876  0.04529679  0.98338378    -0.74400
O190        O  0.57239517  0.05502672  0.05675717    -0.80300
O191        O  0.38502570  0.99873617  0.01980946    -0.82000
O192        O  0.42257990  0.93516930  0.94039683    -0.80300
C193        C  0.57835537  0.05900544  0.99908610     0.87900
O194        O  0.50433843  0.98296166  0.96376341    -0.87400
O195        O  0.53205020  0.96116437  0.99748123    -0.87600
O196        O  0.48161993  0.91030867  0.98877476    -0.74600
Mg197      Mg  0.53840458  0.06082788  0.03243395     1.58000
O198        O  0.59932381  0.02388741  0.04593609    -0.82000
H199        H  0.47597309  0.07526303  0.98903156    -0.05700
O200        O  0.43221762  0.94842656  0.98497480    -0.87300
H201        H  0.40166756  0.89843362  0.99695112    -0.05500
H202        H  0.52875241  0.02567955  0.94599883    -0.05700
C203        C  0.41596739  0.92845042  0.99854111     0.87800
C204        C  0.48244641  0.06008468  0.99917493     0.88400
C205        C  0.50612743  0.01007018  0.95566542     0.88500
H206        H  0.51619606  0.91166396  0.00923773    -0.05700
O207        O  0.51229728  0.96744170  0.03957657    -0.74700
Mg208      Mg  0.45576447  0.92760802  0.96498747     1.58000
H209        H  0.46707095  0.96357473  0.05290090    -0.05700
C210        C  0.36395742  0.98695889  0.00571154     0.93500
O211        O  0.39601509  0.96667663  0.95122797    -0.81900
C212        C  0.39865604  0.94616450  0.93890108     0.93500
O213        O  0.51248644  0.08267366  0.05315139    -0.81900
Mg214      Mg  0.56476820  0.99164494  0.02133047     1.58200
O215        O  0.37283798  0.97572270  0.99121990    -0.80300
O216        O  0.60994397  0.98719618  0.97885336    -0.82000
O217        O  0.55091209  0.56691542  0.99468001    -0.87500
C218        C  0.50366600  0.48426633  0.95611545     0.88500
Mg219      Mg  0.58434044  0.56711232  0.01750523     1.58100
O220        O  0.44170790  0.48697405  0.98883658    -0.87300
O221        O  0.50215914  0.57327943  0.98935211    -0.74600
C222        C  0.48465966  0.39723785  0.05419270     0.93500
O223        O  0.58230111  0.51490782  0.98006012    -0.74400
O224        O  0.51920562  0.42239594  0.05303008    -0.81900
Mg225      Mg  0.56567296  0.55583982  0.96776828     1.58000
C226        C  0.36315286  0.38708833  0.01446308     0.93500
O227        O  0.55393560  0.59762191  0.95292234    -0.80200
H228        H  0.41899341  0.51407697  0.00133229    -0.05500
C229        C  0.48043911  0.41501676  0.00093411     0.88400
O230        O  0.53436469  0.54552068  0.03736850    -0.74700
O231        O  0.50871455  0.51275765  0.96411299    -0.87500
O232        O  0.37348757  0.40213333  0.99852087    -0.80300
C233        C  0.39796389  0.45622606  0.94483581     0.93600
C234        C  0.52840903  0.60031232  0.94430893     0.93400
Mg235      Mg  0.44751332  0.44164957  0.03066281     1.58000
O236        O  0.45940871  0.39979323  0.04520641    -0.80200
O237        O  0.43102701  0.48300278  0.01877246    -0.74400
O238        O  0.42655579  0.48905494  0.94492588    -0.80300
O239        O  0.62608689  0.60203050  0.97096660    -0.82000
O240        O  0.58795771  0.51055812  0.05393363    -0.80300
C241        C  0.42979424  0.49516020  0.00275396     0.87900
O242        O  0.50445843  0.48492075  0.03443973    -0.87400
O243        O  0.46194114  0.43065364  0.00359931    -0.87600
O244        O  0.51155840  0.42556659  0.00907111    -0.74600
Mg245      Mg  0.46669652  0.52906650  0.96757565     1.58000
O246        O  0.39236205  0.43258832  0.95751903    -0.82000
H247        H  0.54445891  0.60679398  0.00671558    -0.05700
O248        O  0.57218166  0.51166463  0.01007651    -0.87300
H249        H  0.59505446  0.48464624  0.99766588    -0.05500
H250        H  0.48908364  0.51070537  0.05290537    -0.05700
C251        C  0.58402141  0.50333664  0.99616380     0.87800
C252        C  0.53339972  0.58355339  0.99721294     0.88400
C253        C  0.50866275  0.51330442  0.04221180     0.88500
H254        H  0.47025617  0.39226604  0.99116955    -0.05700
O255        O  0.47723057  0.45225221  0.96077221    -0.74700
Mg256      Mg  0.54710713  0.46938564  0.03122835     1.58000
H257        H  0.52290048  0.48655261  0.94530042    -0.05700
C258        C  0.64909395  0.61132406  0.98436537     0.93500
O259        O  0.61881655  0.56772726  0.04182008    -0.81900
C260        C  0.61446365  0.54466405  0.05457726     0.93500
O261        O  0.49395266  0.57526424  0.94571928    -0.81900
Mg262      Mg  0.42774928  0.43126489  0.98107260     1.58200
O263        O  0.63862273  0.59668170  0.00037466    -0.80300
O264        O  0.38662169  0.39544863  0.02760599    -0.82000
O265        O  0.02420783  0.45436732  0.99373946    -0.87500
C266        C  0.98264294  0.49975910  0.95680339     0.88500
Mg267      Mg  0.99430988  0.42139863  0.01772259     1.58100
O268        O  0.05195736  0.56320176  0.98746634    -0.87300
O269        O  0.07810510  0.50271966  0.98601380    -0.74600
C270        C  0.92755376  0.52068126  0.05785294     0.93500
O271        O  0.93851085  0.42216727  0.98235190    -0.74400
O272        O  0.91983867  0.48675725  0.05736263    -0.81900
Mg273      Mg  0.99435402  0.43854419  0.96776551     1.58000
C274        C  0.02928334  0.64002208  0.01470678     0.93500
O275        O  0.04544298  0.44994167  0.95043453    -0.80200
H276        H  0.10325775  0.58616295  0.99855574    -0.05500
C277        C  0.94205527  0.52290548  0.00391810     0.88400
O278        O  0.02508907  0.47178792  0.03697345    -0.74700
O279        O  0.00737689  0.49529372  0.96387078    -0.87500
O280        O  0.03413104  0.63014633  0.99868506    -0.80300
C281        C  0.05814034  0.60664732  0.94372936     0.93600
C282        C  0.07180753  0.47464491  0.94049919     0.93400
Mg283      Mg  0.00522845  0.55745282  0.03133363     1.58000
O284        O  0.95261373  0.54560049  0.04746844    -0.80200
O285        O  0.06192237  0.57427212  0.01731011    -0.74400
O286        O  0.06413008  0.57910609  0.94317722    -0.80300
O287        O  0.98112341  0.37826717  0.97107022    -0.82000
O288        O  0.93841852  0.41824457  0.05621712    -0.80300
C289        C  0.07359719  0.57527238  0.00085329     0.87900
O290        O  0.99364581  0.50124685  0.03533235    -0.87400
O291        O  0.97660036  0.54147164  0.00518883    -0.87600
O292        O  0.92297743  0.49258116  0.01284451    -0.74600
Mg293      Mg  0.06629504  0.53773502  0.96507286     1.58000
O294        O  0.04039967  0.61070022  0.95715296    -0.82000
H295        H  0.07295163  0.46200922  0.00354847    -0.05700
O296        O  0.94948890  0.43281993  0.01214580    -0.87300
H297        H  0.89780912  0.40957671  0.00153992    -0.05500
H298        H  0.03738765  0.51752203  0.05233944    -0.05700
C299        C  0.92738959  0.42066377  0.99894936     0.87800
C300        C  0.05879814  0.47222211  0.99473949     0.88400
C301        C  0.01906552  0.49756775  0.04216766     0.88500
H302        H  0.92774633  0.53241933  0.99479436    -0.05700
O303        O  0.97719992  0.52592891  0.96195523    -0.74700
Mg304      Mg  0.93520719  0.45839091  0.03422565     1.58000
H305        H  0.96450846  0.48027895  0.94642004    -0.05700
C306        C  0.96949362  0.35597799  0.98483600     0.93500
O307        O  0.96335502  0.38695991  0.04308473    -0.81900
C308        C  0.94560915  0.39150779  0.05636233     0.93500
O309        O  0.08164757  0.50913635  0.94184276    -0.81900
Mg310      Mg  0.00777854  0.57554738  0.98173468     1.58200
O311        O  0.96770068  0.36711805  0.00104833    -0.80300
O312        O  0.01671891  0.61694792  0.02809220    -0.82000
O313        O  0.29506209  0.09679741  0.66402183    -0.87500
C314        C  0.34295491  0.17055138  0.70631148     0.88500
Mg315      Mg  0.32410690  0.09779228  0.63887158     1.58100
O316        O  0.27765221  0.18016501  0.67881857    -0.87300
O317        O  0.24303632  0.09313974  0.67367993    -0.74600
C318        C  0.40312018  0.27270250  0.60950254     0.93500
O319        O  0.38055512  0.14006208  0.67649716    -0.74400
O320        O  0.40997561  0.24588758  0.60849852    -0.81900
Mg321      Mg  0.32311539  0.09980328  0.68963238     1.58000
C322        C  0.30575313  0.28434704  0.65975748     0.93500
O323        O  0.26921690  0.05740689  0.70509817    -0.80200
H324        H  0.22638630  0.15813606  0.66782156    -0.05500
C325        C  0.38850600  0.24768481  0.66291942     0.88400
O326        O  0.29696574  0.12542256  0.62264251    -0.74700
O327        O  0.31591238  0.14501297  0.69821884    -0.87500
O328        O  0.30250361  0.26640201  0.67457278    -0.80300
C329        C  0.27696429  0.20768862  0.72574190     0.93600
C330        C  0.24554370  0.05770563  0.71644312     0.93400
Mg331      Mg  0.32546701  0.22951789  0.63642561     1.58000
O332        O  0.37837595  0.27152544  0.62059589    -0.80200
O333        O  0.26840287  0.18930090  0.64974701    -0.74400
O334        O  0.26530875  0.17309916  0.72293633    -0.80300
O335        O  0.33118776  0.05187667  0.68135033    -0.82000
O336        O  0.38594169  0.15771043  0.60345851    -0.80300
C337        C  0.25630003  0.17552886  0.66574256     0.87900
O338        O  0.33351789  0.18484050  0.62781466    -0.87400
O339        O  0.35407172  0.23301681  0.66197559    -0.87600
O340        O  0.40646408  0.23752570  0.65241461    -0.74600
Mg341      Mg  0.25910809  0.13467746  0.69790350     1.58000
O342        O  0.29739947  0.23261713  0.71401379    -0.82000
H343        H  0.24533237  0.06148816  0.65281890    -0.05700
O344        O  0.37193219  0.15020366  0.64747772    -0.87300
H345        H  0.42296909  0.17181677  0.65870685    -0.05500
H346        H  0.29021772  0.16568480  0.61030657    -0.05700
C347        C  0.39301062  0.15443575  0.66062460     0.87800
C348        C  0.26066301  0.08270827  0.66306828     0.88400
C349        C  0.30673432  0.15921800  0.61961802     0.88500
H350        H  0.40357497  0.26911609  0.67312432    -0.05700
O351        O  0.35291817  0.20439453  0.70328702    -0.74700
Mg352      Mg  0.39084793  0.19602199  0.62831910     1.58000
H353        H  0.35950841  0.16395629  0.71553154    -0.05700
C354        C  0.34341117  0.04523447  0.66650554     0.93500
O355        O  0.35360102  0.09814184  0.61238589    -0.81900
C356        C  0.37471027  0.12314628  0.60084210     0.93500
O357        O  0.24036001  0.08552692  0.71767051    -0.81900
Mg358      Mg  0.32582986  0.23230163  0.68725964     1.58200
O359        O  0.34770408  0.06364515  0.65171515    -0.80300
O360        O  0.31702009  0.27733376  0.64469521    -0.82000
C361        C  0.16548006  0.36157006  0.84518454     0.03100
C362        C  0.19897475  0.35991307  0.84575366     0.03000
C363        C  0.20551836  0.33972194  0.83211425    -0.17500
C364        C  0.17915397  0.32000724  0.81823347     0.03100
C365        C  0.14462399  0.31970411  0.81811941     0.03000
C366        C  0.13856563  0.34102323  0.83146981    -0.17500
H367        H  0.11239147  0.34131708  0.83129120     0.05100
H368        H  0.23150900  0.33903682  0.83241758     0.05100
C369        C  0.15207902  0.80967477  0.84491287     0.03100
C370        C  0.18724882  0.84358141  0.84432731     0.03000
C371        C  0.19382845  0.86906076  0.82982547    -0.17500
C372        C  0.16730871  0.86178933  0.81583572     0.03100
C373        C  0.13292330  0.82756035  0.81598217     0.03000
C374        C  0.12588302  0.80219942  0.83054351    -0.17500
H375        H  0.09974903  0.77580405  0.83052799     0.05100
H376        H  0.21990426  0.89552281  0.82958280     0.05100
O377        O  0.89398680  0.21116049  0.67243708    -0.87500
C378        C  0.81241735  0.17067827  0.71195342     0.88500
Mg379      Mg  0.89200273  0.23797597  0.64722638     1.58100
O380        O  0.81736929  0.10473702  0.68295924    -0.87300
O381        O  0.90385246  0.16655851  0.68155334    -0.74600
C382        C  0.72038739  0.12902391  0.61338680     0.93500
O383        O  0.84017874  0.24252852  0.68344063    -0.74400
O384        O  0.74516986  0.16364396  0.61307479    -0.81900
Mg385      Mg  0.88338796  0.23136200  0.69790302     1.58000
C386        C  0.71573385  0.02011526  0.66044028     0.93500
O387        O  0.92726784  0.22544458  0.71516334    -0.80200
H388        H  0.84540734  0.08121705  0.67222111    -0.05500
C389        C  0.74081359  0.13626237  0.66680202     0.88400
O390        O  0.87115548  0.18432388  0.63058233    -0.74700
O391        O  0.84155142  0.17513659  0.70470463    -0.87500
O392        O  0.73302288  0.03354997  0.67560577    -0.80300
C393        C  0.78729146  0.06679239  0.72780521     0.93600
C394        C  0.93050424  0.20251617  0.72577549     0.93400
Mg395      Mg  0.76808525  0.09936479  0.63989230     1.58000
O396        O  0.72397728  0.10609564  0.62376044    -0.80200
O397        O  0.81162572  0.08750715  0.65380074    -0.74400
O398        O  0.82012213  0.09564525  0.72780863    -0.80300
O399        O  0.92840458  0.29101863  0.69100733    -0.82000
O400        O  0.83226644  0.23335884  0.60992813    -0.80300
C401        C  0.82541720  0.09058675  0.66992769     0.87900
O402        O  0.81012556  0.15489995  0.63323002    -0.87400
O403        O  0.75821555  0.11922337  0.66560822    -0.87600
O404        O  0.74970734  0.16507411  0.65705161    -0.74600
Mg405      Mg  0.85979358  0.13425018  0.70406411     1.58000
O406        O  0.76387020  0.06084706  0.71498252    -0.82000
H407        H  0.93591575  0.20531463  0.66233062    -0.05700
O408        O  0.83595055  0.22602919  0.65420398    -0.87300
H409        H  0.80766852  0.24949748  0.66458284    -0.05500
H410        H  0.83659870  0.13641908  0.61692526    -0.05700
C411        C  0.82748070  0.24008463  0.66712144     0.87800
C412        C  0.91245949  0.19519196  0.67175272     0.88400
C413        C  0.83889695  0.15788858  0.62626113     0.88500
H414        H  0.71805934  0.12690973  0.67660679    -0.05700
O415        O  0.78062840  0.14322821  0.70775683    -0.74700
Mg416      Mg  0.79282932  0.19646980  0.63390272     1.58000
H417        H  0.81391605  0.19132627  0.72161824    -0.05700
C418        C  0.93603146  0.31016909  0.67615959     0.93500
O419        O  0.89097916  0.26574196  0.62047326    -0.81900
C420        C  0.86649634  0.25913587  0.60807018     0.93500
O421        O  0.90630622  0.16765212  0.72558204    -0.81900
Mg422      Mg  0.76089609  0.09075751  0.68999693     1.58200
O423        O  0.92024194  0.29547179  0.66084795    -0.80300
O424        O  0.72269458  0.04037241  0.64610875    -0.82000
O425        O  0.75740878  0.63571997  0.66215777    -0.87500
C426        C  0.83836842  0.67518917  0.62196071     0.88500
Mg427      Mg  0.75612394  0.66860027  0.68509900     1.58100
O428        O  0.84099307  0.61183914  0.65378348    -0.87300
O429        O  0.75330170  0.58222798  0.65556733    -0.74600
C430        C  0.92986074  0.74626486  0.71882656     0.93500
O431        O  0.80529371  0.71921018  0.64679366    -0.74400
O432        O  0.90400389  0.75477945  0.71842539    -0.81900
Mg433      Mg  0.76552625  0.66064790  0.63516232     1.58000
C434        C  0.94424339  0.64225075  0.67857626     0.93500
O435        O  0.72337246  0.60585800  0.62107047    -0.80200
H436        H  0.81506467  0.56255376  0.66675385    -0.05500
C437        C  0.90924786  0.72388386  0.66595794     0.88400
O438        O  0.78070753  0.64326740  0.70484731    -0.74700
O439        O  0.81103275  0.65067749  0.63038818    -0.87500
O440        O  0.92952276  0.63633022  0.66249320    -0.80300
C441        C  0.87326597  0.60389062  0.60907036     0.93600
C442        C  0.72393622  0.58128251  0.61069289     0.93400
Mg443      Mg  0.88510523  0.66476367  0.69557677     1.58000
O444        O  0.92686525  0.71865236  0.70969073    -0.80200
O445        O  0.84481737  0.60650489  0.68388544    -0.74400
O446        O  0.83894348  0.59566213  0.61018468    -0.80300
O447        O  0.71711638  0.67044391  0.63936926    -0.82000
O448        O  0.81418656  0.73158923  0.72033521    -0.80300
C449        C  0.83328240  0.59238965  0.66792434     0.87900
O450        O  0.84098264  0.67613165  0.70029622    -0.87400
O451        O  0.89417887  0.68986692  0.66854168    -0.87600
O452        O  0.89835713  0.74368641  0.67442592    -0.74600
Mg453      Mg  0.79770122  0.59352031  0.63300962     1.58000
O454        O  0.89727940  0.62356949  0.62134443    -0.82000
H455        H  0.71972235  0.58806622  0.67426733    -0.05700
O456        O  0.81069457  0.71402229  0.67677771    -0.87300
H457        H  0.83519839  0.76334591  0.66381974    -0.05500
H458        H  0.81860708  0.63655465  0.71978817    -0.05700
C459        C  0.81742505  0.73342988  0.66268333     0.87800
C460        C  0.74235751  0.60162103  0.66440385     0.88400
C461        C  0.81393606  0.65185005  0.70896803     0.88500
H462        H  0.93171021  0.73697100  0.65596704    -0.05700
O463        O  0.87144962  0.68301728  0.62600101    -0.74700
Mg464      Mg  0.85495374  0.73355735  0.69720144     1.58000
H465        H  0.83409515  0.69109265  0.61132662    -0.05700
C466        C  0.70596945  0.68232056  0.65274998     0.93500
O467        O  0.75575907  0.70281971  0.70929255    -0.81900
C468        C  0.77969936  0.72288614  0.72151084     0.93500
O469        O  0.75120538  0.57489737  0.61096560    -0.81900
Mg470      Mg  0.89587188  0.65720148  0.64569377     1.58200
O471        O  0.72167286  0.68889079  0.66859827    -0.80300
O472        O  0.93260684  0.65396912  0.69177438    -0.82000
C473        C  0.64018545  0.80305465  0.84835464     0.03100
C474        C  0.64053915  0.83738302  0.84825698     0.03000
C475        C  0.66143993  0.86421422  0.83482038    -0.17500
C476        C  0.68163681  0.85767302  0.82113493     0.03100
C477        C  0.68176484  0.82354050  0.82116370     0.03000
C478        C  0.66103077  0.79670116  0.83485761    -0.17500
H479        H  0.66082360  0.77042353  0.83490239     0.05100
H480        H  0.66132731  0.89035704  0.83476514     0.05100
C481        C  0.01273250  0.52045491  0.48504520     0.03100
C482        C  0.01625040  0.48804473  0.48548903     0.03000
C483        C  0.99903177  0.46215701  0.50000198    -0.17500
C484        C  0.97835567  0.46740168  0.51394330     0.03100
C485        C  0.97520021  0.49976613  0.51366128     0.03000
C486        C  0.99250213  0.52583061  0.49930856    -0.17500
H487        H  0.99056821  0.55100054  0.49941192     0.05100
H488        H  0.00087897  0.43693468  0.50020218     0.05100
C489        C  0.50451234  0.53116708  0.48543498     0.03100
C490        C  0.47032605  0.49663772  0.48539702     0.03000
C491        C  0.46422922  0.46980120  0.49902431    -0.17500
C492        C  0.49112050  0.47649888  0.51278123     0.03100
C493        C  0.52526948  0.51106028  0.51284893     0.03000
C494        C  0.53131067  0.53800358  0.49927864    -0.17500
H495        H  0.55764874  0.56420851  0.49917940     0.05100
H496        H  0.43780358  0.44368645  0.49917775     0.05100
C497        C  0.46692924  0.96371140  0.48916637     0.03100
C498        C  0.50479817  0.97201346  0.48896775     0.03000
C499        C  0.52899443  0.99439593  0.50315078    -0.17500
C500        C  0.51723350  0.01028363  0.51694828     0.03100
C501        C  0.48023828  0.00413614  0.51637700     0.03000
C502        C  0.45539782  0.98015004  0.50283109    -0.17500
H503        H  0.42708943  0.97560997  0.50239300     0.05100
H504        H  0.55743903  0.99930367  0.50351901     0.05100
O505        O  0.95199234  0.01137888  0.98721824    -0.87500
C506        C  0.02361430  0.06619994  0.03013632     0.88500
Mg507      Mg  0.91281373  0.95207698  0.98690104     1.58100
O508        O  0.06573892  0.05509513  0.99013252    -0.87300
O509        O  0.99701155  0.05459620  0.97033814    -0.74600
C510        C  0.01509580  0.87604517  0.01109523     0.93500
O511        O  0.94035670  0.99173336  0.03059349    -0.74400
O512        O  0.98192660  0.87054589  0.01285752    -0.81900
Mg513      Mg  0.95281167  0.04141056  0.01181798     1.58000
C514        C  0.13936243  0.01608180  0.99520424     0.93500
O515        O  0.96083769  0.09320800  0.99585591    -0.80200
H516        H  0.07527143  0.06219236  0.96285217    -0.05500
C517        C  0.03926474  0.97597980  0.03061847     0.88400
O518        O  0.95242130  0.94147523  0.96902401    -0.74700
O519        O  0.01158930  0.06346989  0.01420471    -0.87500
O520        O  0.13529460  0.04276860  0.00118428    -0.80300
C521        C  0.12560368  0.14096682  0.01401433     0.93600
C522        C  0.98745954  0.12507435  0.99081926     0.93400
Mg523      Mg  0.05019504  0.96076185  0.99048052     1.58000
O524        O  0.04207137  0.90760961  0.00579060    -0.80200
O525        O  0.06197821  0.01073870  0.97209512    -0.74400
O526        O  0.09498574  0.13659711  0.00730324    -0.80300
O527        O  0.89146205  0.01880075  0.00985084    -0.82000
O528        O  0.90907719  0.86743305  0.99557478    -0.80300
C529        C  0.06850568  0.04380000  0.97467108     0.87900
O530        O  0.99150974  0.93899718  0.98857696    -0.87400
O531        O  0.05144066  0.99072953  0.01535439    -0.87600
O532        O  0.00646589  0.94811323  0.03248943    -0.74600
Mg533      Mg  0.04446456  0.09266406  0.99030777     1.58000
O534        O  0.13064286  0.11327730  0.01648388    -0.82000
H535        H  0.94735245  0.01462804  0.95980130    -0.05700
O536        O  0.93735276  0.94766039  0.01262684    -0.87300
H537        H  0.92664628  0.94014261  0.03980827    -0.05500
H538        H  0.99254613  0.92934166  0.96151567    -0.05700
C539        C  0.93392505  0.95870044  0.02803601     0.87800
C540        C  0.96436970  0.02636101  0.97201918     0.88400
C541        C  0.97923567  0.93578031  0.97266982     0.88500
H542        H  0.05656789  0.98774222  0.04274958    -0.05700
O543        O  0.05042497  0.06046011  0.03372931    -0.74700
Mg544      Mg  0.95896396  0.91030470  0.01259610     1.58000
H545        H  0.01011438  0.07229068  0.04134987    -0.05700
C546        C  0.86351603  0.98676373  0.00673241     0.93500
O547        O  0.87230414  0.88912311  0.98591673    -0.81900
C548        C  0.87851403  0.86219962  0.98846372     0.93500
O549        O  0.02118667  0.13189798  0.98993427    -0.81900
Mg550      Mg  0.09012975  0.05021777  0.01568072     1.58200
O551        O  0.86717751  0.95954086  0.00120039    -0.80300
O552        O  0.11192364  0.98387372  0.99174247    -0.82000
O553        O  0.70768723  0.31033237  0.32055127    -0.87500
C554        C  0.64254295  0.26818281  0.36624988     0.88500
Mg555      Mg  0.75372027  0.36647324  0.31936709     1.58100
O556        O  0.60415080  0.29212962  0.32883000    -0.87300
O557        O  0.65698272  0.27344075  0.30508908    -0.74600
C558        C  0.69139592  0.47444180  0.35187808     0.93500
O559        O  0.73205384  0.32879259  0.36299066    -0.74400
O560        O  0.72112383  0.47222841  0.35161873    -0.81900
Mg561      Mg  0.70633001  0.27718106  0.34396424     1.58000
C562        C  0.54745744  0.34881771  0.33691469     0.93500
O563        O  0.68251542  0.22158825  0.32735094    -0.80200
H564        H  0.58904592  0.28696626  0.30220661    -0.05500
C565        C  0.64911911  0.37070105  0.36978495     0.88400
O566        O  0.71900955  0.38721286  0.30423118    -0.74700
O567        O  0.65061312  0.26678733  0.34984398    -0.87500
O568        O  0.54852381  0.31992270  0.34188384    -0.80300
C569        C  0.53304497  0.21210116  0.35277769     0.93600
C570        C  0.65043728  0.19337320  0.32358966     0.93400
Mg571      Mg  0.63651673  0.39138067  0.33113356     1.58000
O572        O  0.65941489  0.44663771  0.34765478    -0.80200
O573        O  0.61187322  0.33973335  0.31209743    -0.74400
O574        O  0.55936735  0.20797123  0.34597264    -0.80300
O575        O  0.76635616  0.28907687  0.33832568    -0.82000
O576        O  0.78225808  0.45970045  0.33061989    -0.80300
C577        C  0.60083815  0.30520812  0.31399091     0.87900
O578        O  0.69168360  0.40145650  0.32616105    -0.87400
O579        O  0.63329469  0.35810650  0.35481696    -0.87600
O580        O  0.68417730  0.39310845  0.37066212    -0.74600
Mg581      Mg  0.61119329  0.24420560  0.32718893     1.58000
O582        O  0.53739446  0.24418235  0.35588337    -0.82000
H583        H  0.70780855  0.30544824  0.29299825    -0.05700
O584        O  0.73827897  0.37611807  0.34651162    -0.87300
H585        H  0.75550958  0.38167670  0.37280949    -0.05500
H586        H  0.68742639  0.41129531  0.29940746    -0.05700
C587        C  0.74285426  0.36326566  0.36113582     0.87800
C588        C  0.69184953  0.29671112  0.30572123     0.88400
C589        C  0.69931343  0.40109716  0.30962221     0.88500
H590        H  0.63296377  0.36155479  0.38243804    -0.05700
O591        O  0.62168573  0.28134669  0.37093986    -0.74700
Mg592      Mg  0.73055363  0.42328427  0.34894527     1.58000
H593        H  0.65443841  0.25895338  0.37693559    -0.05700
C594        C  0.79532989  0.32094650  0.33560231     0.93500
O595        O  0.80338279  0.42527716  0.31749443    -0.81900
C596        C  0.80755721  0.45690780  0.32174846     0.93500
O597        O  0.62041294  0.19496071  0.32476915    -0.81900
Mg598      Mg  0.58708963  0.30224952  0.35521079     1.58200
O599        O  0.79292322  0.34938170  0.33134382    -0.80300
O600        O  0.57712714  0.38040126  0.33514714    -0.82000
O601        O  0.31507528  0.71566415  0.67925764    -0.87500
C602        C  0.25276334  0.63508797  0.64137005     0.88500
Mg603      Mg  0.37305842  0.75519482  0.67445631     1.58100
O604        O  0.28137278  0.60367667  0.67997511    -0.87300
O605        O  0.28209698  0.67249399  0.69970582    -0.74600
C606        C  0.45259155  0.65996156  0.64576849     0.93500
O607        O  0.32133626  0.72085751  0.63470187    -0.74400
O608        O  0.45339251  0.69063747  0.64307619    -0.81900
Mg609      Mg  0.27679877  0.70837910  0.65703007     1.58000
C610        C  0.32258087  0.53177535  0.67186430     0.93500
O611        O  0.22663121  0.69781755  0.67593310    -0.80200
H612        H  0.28126132  0.59543397  0.70726635    -0.05500
C613        C  0.34461915  0.62395264  0.63358249     0.88400
O614        O  0.39157046  0.72037331  0.69149406    -0.74700
O615        O  0.25971998  0.65034265  0.65672400    -0.87500
O616        O  0.29337905  0.53441633  0.66929437    -0.80300
C617        C  0.18894628  0.53691930  0.66398808     0.93600
C618        C  0.19880911  0.66942542  0.68338249     0.93400
Mg619      Mg  0.37449180  0.62144304  0.67193705     1.58000
O620        O  0.42416080  0.63179763  0.65294688    -0.80200
O621        O  0.33028050  0.60889195  0.69445140    -0.74400
O622        O  0.19477296  0.56857515  0.66939333    -0.80300
O623        O  0.29630917  0.77003884  0.65708933    -0.82000
O624        O  0.45653869  0.76143914  0.65978500    -0.80300
C625        C  0.29659301  0.60195682  0.69438250     0.87900
O626        O  0.39174507  0.67938997  0.67239862    -0.87400
O627        O  0.33584997  0.61398423  0.64984799    -0.87600
O628        O  0.36938118  0.65712185  0.62946819    -0.74600
Mg629      Mg  0.24121115  0.62134687  0.68282247     1.58000
O630        O  0.21591847  0.53137205  0.66003321    -0.82000
H631        H  0.32091873  0.72556240  0.70650735    -0.05700
O632        O  0.37016945  0.72603510  0.64926335    -0.87300
H633        H  0.37044233  0.73432166  0.62196468    -0.05500
H634        H  0.40847359  0.68375025  0.69873639    -0.05700
C635        C  0.35502407  0.72778850  0.63483570     0.87800
C636        C  0.30640192  0.70576645  0.69553463     0.88400
C637        C  0.39814400  0.69418710  0.68785779     0.88500
H638        H  0.32998284  0.60429619  0.62257958    -0.05700
O639        O  0.25880664  0.60849493  0.63787512    -0.74700
Mg640      Mg  0.41050384  0.70845150  0.64631202     1.58000
H641        H  0.24223842  0.64531428  0.63049216    -0.05700
C642        C  0.32932053  0.79828363  0.65698707     0.93500
O643        O  0.43479541  0.79761107  0.67000972    -0.81900
C644        C  0.46197432  0.79262340  0.66578718     0.93500
O645        O  0.19886618  0.63920094  0.68602445    -0.81900
Mg646      Mg  0.27782684  0.57407028  0.65495523     1.58200
O647        O  0.35816479  0.79536131  0.66015928    -0.80300
O648        O  0.35539763  0.56016532  0.67158125    -0.82000
C649        C  0.09906392  0.63626827  0.69841297    -0.27400
C650        C  0.09042483  0.65874483  0.68736605     0.06200
C651        C  0.11920418  0.68864601  0.67746719     0.25800
C652        C  0.15559965  0.69420158  0.67756900    -0.11900
C653        C  0.16371021  0.66976724  0.68738747    -0.25800
C654        C  0.13531922  0.64152803  0.69841094     0.36600
C655        C  0.05112966  0.64991540  0.68554024     0.06200
F656        F  0.11177642  0.71171155  0.66723249    -0.19600
H657        H  0.17678316  0.71614499  0.66899693     0.16000
F658        F  0.14204278  0.61779928  0.70849594    -0.23300
H659        H  0.07725936  0.61346159  0.70633772     0.17800
C660        C  0.03350285  0.64117791  0.66813936     0.25800
C661        C  0.99735476  0.63573925  0.66620067    -0.11900
C662        C  0.97825162  0.63919508  0.68156149    -0.25900
C663        C  0.99518781  0.64554099  0.69923067     0.36700
C664        C  0.03125332  0.65068923  0.70112973    -0.27500
F665        F  0.05160421  0.63865117  0.65295114    -0.19600
H666        H  0.98515624  0.63071315  0.65247034     0.16000
F667        F  0.97775639  0.64846627  0.71459259    -0.23400
H668        H  0.04430125  0.65678978  0.71468457     0.17900
C669        C  0.61620104  0.68354843  0.66299683    -0.27400
C670        C  0.59936408  0.67600653  0.64540957     0.06200
C671        C  0.61979201  0.67518151  0.62999921     0.25800
C672        C  0.65554811  0.67971727  0.63236068    -0.11900
C673        C  0.67174949  0.68527643  0.65011229    -0.25800
C674        C  0.65198387  0.68818466  0.66540047     0.36600
C675        C  0.56021322  0.66812762  0.64344225     0.06200
F676        F  0.60436138  0.66787074  0.61280796    -0.19600
H677        H  0.66989700  0.67728394  0.62031290     0.16000
F678        F  0.66614696  0.69347664  0.68283413    -0.23300
H679        H  0.60118246  0.68503777  0.67500672     0.17800
C680        C  0.53154743  0.64114196  0.65471048     0.25800
C681        C  0.49545529  0.63625933  0.65411121    -0.11900
C682        C  0.48735856  0.65856510  0.64250133    -0.25900
C683        C  0.51544793  0.68394012  0.63037706     0.36700
C684        C  0.55150106  0.68850904  0.63083156    -0.27500
F685        F  0.53870407  0.62016984  0.66668671    -0.19600
H686        H  0.47449063  0.61665182  0.66364781     0.16000
F687        F  0.50848730  0.70532963  0.61859407    -0.23400
H688        H  0.57309109  0.70922638  0.62192569     0.17900
C689        C  0.74112322  0.78886586  0.79763165    -0.27400
C690        C  0.73088998  0.78761586  0.77895519     0.06200
C691        C  0.70636683  0.80074440  0.77415007     0.25800
C692        C  0.69147004  0.81353003  0.78783821    -0.11900
C693        C  0.70093010  0.81384553  0.80655057    -0.25800
C694        C  0.72630529  0.80180962  0.81131681     0.36600
C695        C  0.74386401  0.77053654  0.76474052     0.06200
F696        F  0.69649692  0.80088947  0.75621080    -0.19600
H697        H  0.67158914  0.82213880  0.78386552     0.16000
F698        F  0.73624728  0.80197834  0.82927114    -0.23300
H699        H  0.75964270  0.77863098  0.80172296     0.17800
C700        C  0.78187431  0.78068614  0.76306864     0.25800
C701        C  0.79328317  0.76437624  0.74938096    -0.11900
C702        C  0.76708426  0.73768169  0.73706853    -0.25900
C703        C  0.72891429  0.72713479  0.73907768     0.36700
C704        C  0.71764342  0.74328799  0.75277168    -0.27500
F705        F  0.80817007  0.80728698  0.77422642    -0.19600
H706        H  0.82282069  0.77334873  0.74815969     0.16000
F707        F  0.70221942  0.70144155  0.72772359    -0.23400
H708        H  0.68811551  0.73436388  0.75403778     0.17900
C709        C  0.59383973  0.55627540  0.55267480    -0.27400
C710        C  0.60937694  0.53295416  0.55443567     0.06200
C711        C  0.59762289  0.50273447  0.54215874     0.25800
C712        C  0.57079284  0.49607489  0.52847836    -0.11900
C713        C  0.55520254  0.51937742  0.52678286    -0.25800
C714        C  0.56722282  0.54975836  0.53894262     0.36600
C715        C  0.63750454  0.54044833  0.56921984     0.06200
F716        F  0.61123690  0.47903489  0.54375072    -0.19600
H717        H  0.56181946  0.47243352  0.51929088     0.16000
F718        F  0.55232804  0.57244742  0.53789852    -0.23300
H719        H  0.60247187  0.57972143  0.56196198     0.17800
C720        C  0.67330794  0.54592852  0.56495850     0.25800
C721        C  0.70061658  0.55643001  0.57885327    -0.11900
C722        C  0.69291215  0.56219952  0.59715366    -0.25900
C723        C  0.65660614  0.55523787  0.60151753     0.36700
C724        C  0.62928991  0.54444912  0.58769023    -0.27500
F725        F  0.68272539  0.54366996  0.54716291    -0.19600
H726        H  0.72853609  0.56237721  0.57505718     0.16000
F727        F  0.64781955  0.55985572  0.61909750    -0.23400
H728        H  0.60183654  0.54006164  0.59132654     0.17900
C729        C  0.93517879  0.58873029  0.57526275    -0.27400
C730        C  0.90983418  0.55383332  0.56759800     0.06200
C731        C  0.87181104  0.53664761  0.57284181     0.25800
C732        C  0.85973605  0.55397961  0.58561871    -0.11900
C733        C  0.88535778  0.58841097  0.59367734    -0.25800
C734        C  0.92324752  0.60581607  0.58817347     0.36600
C735        C  0.92380459  0.53578395  0.55442063     0.06200
F736        F  0.84665900  0.50229400  0.56635399    -0.19600
H737        H  0.83055948  0.53961921  0.58983277     0.16000
F738        F  0.94890666  0.63934887  0.59531498    -0.23300
H739        H  0.96448878  0.60279156  0.57128600     0.17800
C740        C  0.90674612  0.52252591  0.53702638     0.25800
C741        C  0.92259469  0.50905417  0.52414344    -0.11900
C742        C  0.95545895  0.50829557  0.52838388    -0.25900
C743        C  0.97193696  0.52049409  0.54589511     0.36700
C744        C  0.95619562  0.53403075  0.55877003    -0.27500
F745        F  0.87614526  0.52470006  0.53201910    -0.19600
H746        H  0.90995927  0.50038197  0.51056214     0.16000
F747        F  0.00445361  0.52135392  0.55013322    -0.23400
H748        H  0.96987702  0.54404900  0.57204138     0.17900
C749        C  0.54644835  0.89033903  0.66512180    -0.27400
C750        C  0.57601418  0.88276751  0.66420127     0.06200
C751        C  0.56821002  0.84577263  0.66524474     0.25800
C752        C  0.53105598  0.81663813  0.66642633    -0.11900
C753        C  0.50113724  0.82397915  0.66684051    -0.25800
C754        C  0.50930858  0.86131872  0.66657229     0.36600
C755        C  0.61475586  0.91390463  0.66193076     0.06200
F756        F  0.59638249  0.83780103  0.66443075    -0.19600
H757        H  0.52566562  0.78821483  0.66666472     0.16000
F758        F  0.48149363  0.86984571  0.66687019    -0.23300
H759        H  0.55220990  0.91887574  0.66449666     0.17800
C760        C  0.62532828  0.93535856  0.64565532     0.25800
C761        C  0.65984497  0.96843205  0.64467437    -0.11900
C762        C  0.68423753  0.98091665  0.66000939    -0.25900
C763        C  0.67467653  0.95763897  0.67578463     0.36700
C764        C  0.64017956  0.92439575  0.67665901    -0.27500
F765        F  0.60152348  0.92506550  0.63100660    -0.19600
H766        H  0.66636654  0.98536194  0.63227900     0.16000
F767        F  0.69755297  0.96784034  0.69078865    -0.23400
H768        H  0.63243516  0.90785328  0.68923798     0.17900
C769        C  0.00945081  0.40501747  0.65814667    -0.27400
C770        C  0.03645217  0.41625059  0.67218282     0.06200
C771        C  0.02716212  0.39604535  0.68888084     0.25800
C772        C  0.99269115  0.36310422  0.69078589    -0.11900
C773        C  0.96698522  0.34962356  0.67601819    -0.25800
C774        C  0.97497825  0.37198570  0.65997118     0.36600
C775        C  0.07521357  0.44690162  0.66875944     0.06200
F776        F  0.05218052  0.40732920  0.70303326    -0.19600
H777        H  0.98730072  0.34691087  0.70337674     0.16000
F778        F  0.95054225  0.36095967  0.64556442    -0.23300
H779        H  0.01595143  0.42065274  0.64530350     0.17800
C780        C  0.10527228  0.43990422  0.66928846     0.25800
C781        C  0.14209971  0.46895365  0.66665882    -0.11900
C782        C  0.14966949  0.50558689  0.66365397    -0.25900
C783        C  0.11930240  0.51225405  0.66237916     0.36700
C784        C  0.08241051  0.48302478  0.66477296    -0.27500
F785        F  0.09894599  0.40489436  0.67244607    -0.19600
H786        H  0.16482054  0.46300648  0.66772986     0.16000
F787        F  0.12524620  0.54708524  0.65905884    -0.23400
H788        H  0.05950400  0.48875171  0.66401303     0.17900
C789        C  0.77834081  0.01438626  0.77294864    -0.27400
C790        C  0.75119011  0.97783169  0.76782658     0.06200
C791        C  0.73765934  0.97110694  0.74956589     0.25800
C792        C  0.74965564  0.00037897  0.73698951    -0.11900
C793        C  0.77591846  0.03718958  0.74207964    -0.25800
C794        C  0.79088111  0.04392417  0.76012842     0.36600
C795        C  0.73453199  0.94698296  0.78158090     0.06200
F796        F  0.71269629  0.93601507  0.74383624    -0.19600
H797        H  0.73845380  0.99401265  0.72304923     0.16000
F798        F  0.81648205  0.07898296  0.76554488    -0.23300
H799        H  0.78899450  0.02020867  0.78699738     0.17800
C800        C  0.75668947  0.93764837  0.79274107     0.25800
C801        C  0.73957069  0.90752066  0.80518204    -0.11900
C802        C  0.70029919  0.88668183  0.80667714    -0.25900
C803        C  0.67835666  0.89597685  0.79546371     0.36700
C804        C  0.69530644  0.92580633  0.78313400    -0.27500
F805        F  0.79466143  0.95728535  0.79145273    -0.19600
H806        H  0.75685444  0.90091580  0.81390416     0.16000
F807        F  0.64034221  0.87623116  0.79659058    -0.23400
H808        H  0.67765163  0.93263454  0.77483492     0.17900
C809        C  0.63235980  0.06111831  0.58692546    -0.27400
C810        C  0.62782579  0.08485203  0.57464848     0.06200
C811        C  0.65230242  0.12361843  0.57611778     0.25800
C812        C  0.68175092  0.13797725  0.58900413    -0.11900
C813        C  0.68717531  0.11407502  0.60084994    -0.25800
C814        C  0.66141532  0.07533374  0.59989729     0.36600
C815        C  0.59841367  0.06847574  0.56002747     0.06200
F816        F  0.64765757  0.14766488  0.56517057    -0.19600
H817        H  0.70060857  0.16784625  0.58952779     0.16000
F818        F  0.66465640  0.05074359  0.61110870    -0.23300
H819        H  0.61394586  0.03118730  0.58611731     0.17800
C820        C  0.60722587  0.07887832  0.54129571     0.25800
C821        C  0.58019306  0.06093368  0.52749568    -0.11900
C822        C  0.54402076  0.03196510  0.53198970    -0.25900
C823        C  0.53511267  0.02153064  0.55068092     0.36700
C824        C  0.56197768  0.03983123  0.56453122    -0.27500
F825        F  0.64258032  0.10476751  0.53615760    -0.19600
H826        H  0.58783796  0.06892185  0.51314827     0.23200
F827        F  0.50120381  0.99223202  0.55544924    -0.23400
H828        H  0.55458987  0.03094425  0.57879699     0.17900
C829        C  0.87182921  0.32834894  0.57208371    -0.27400
C830        C  0.90817135  0.34201251  0.56480433     0.06200
C831        C  0.92860461  0.32468656  0.57043519     0.25800
C832        C  0.91411721  0.29653880  0.58390841    -0.11900
C833        C  0.87843349  0.28392416  0.59160461    -0.25800
C834        C  0.85685992  0.29926619  0.58512724     0.36600
C835        C  0.92532285  0.37522462  0.55215932     0.06200
F836        F  0.96278029  0.33505789  0.56303958    -0.19600
H837        H  0.93113763  0.28494045  0.58859330     0.16000
F838        F  0.82243451  0.28813128  0.59241350    -0.23300
H839        H  0.85548917  0.34123446  0.56832222     0.17800
C840        C  0.90448248  0.37971728  0.53786882     0.25800
C841        C  0.92142122  0.41085570  0.52608333    -0.11900
C842        C  0.95944801  0.43769717  0.52807258    -0.25900
C843        C  0.98026645  0.43352921  0.54228139     0.36700
C844        C  0.96318795  0.40307230  0.55439718    -0.27500
F845        F  0.86827341  0.35327456  0.53468805    -0.19600
H846        H  0.90522937  0.41331750  0.51491070     0.16000
F847        F  0.01734442  0.45862271  0.54421131    -0.23400
H848        H  0.97982496  0.40121841  0.56550872     0.17900
C849        C  0.04081397  0.79894537  0.79085420    -0.27400
C850        C  0.05175064  0.80310762  0.77211357     0.06200
C851        C  0.08955173  0.81500009  0.76795506     0.25800
C852        C  0.11513923  0.82110083  0.78216134    -0.11900
C853        C  0.10439499  0.81759353  0.80091655    -0.25800
C854        C  0.06676795  0.80625052  0.80510180     0.36600
C855        C  0.02315781  0.79289830  0.75713453     0.06200
F856        F  0.10209919  0.82162577  0.75017400    -0.19600
H857        H  0.14376679  0.82940340  0.77848013     0.16000
F858        F  0.05519144  0.80290669  0.82298094    -0.23300
H859        H  0.01191717  0.78958946  0.79449416     0.17800
C860        C  0.02102292  0.76946260  0.74251724     0.25800
C861        C  0.99204746  0.75681778  0.72957657    -0.11900
C862        C  0.96366315  0.76628395  0.73092943    -0.25900
C863        C  0.96659659  0.79109487  0.74505171     0.36700
C864        C  0.99604248  0.80415320  0.75800992    -0.27500
F865        F  0.04532953  0.75640695  0.74140498    -0.19600
H866        H  0.99099860  0.73792360  0.71890506     0.16000
F867        F  0.94027572  0.80143561  0.74689155    -0.23400
H868        H  0.99716155  0.82241653  0.76903886     0.17900
C869        C  0.04924240  0.25298891  0.79715349    -0.27400
C870        C  0.05521843  0.26283552  0.77827032     0.06200
C871        C  0.09161626  0.28984915  0.77249872     0.25800
C872        C  0.12083630  0.30724297  0.78537716    -0.11900
C873        C  0.11457683  0.29812679  0.80427307    -0.25800
C874        C  0.07853224  0.27046268  0.81003701     0.36600
C875        C  0.02325184  0.24668894  0.76484967     0.06200
F876        F  0.09893252  0.29968756  0.75437038    -0.19600
H877        H  0.14814821  0.32877397  0.78064364     0.16000
F878        F  0.07153933  0.26077354  0.82820363    -0.23300
H879        H  0.02154473  0.23261506  0.80205100     0.17800
C880        C  0.99783416  0.20802022  0.76380295     0.25800
C881        C  0.96807228  0.19373274  0.75101837    -0.11900
C882        C  0.96282177  0.21760381  0.73902427    -0.25900
C883        C  0.98822197  0.25638756  0.74029483     0.36700
C884        C  0.01779017  0.27049050  0.75302436    -0.27500
F885        F  0.00215117  0.18392756  0.77487439    -0.19600
H886        H  0.94909063  0.16388603  0.75053850     0.16000
F887        F  0.98448289  0.28110717  0.72942455    -0.23400
H888        H  0.03631172  0.30040226  0.75379941     0.17900
C889        C  0.34372728  0.45285342  0.67143582    -0.27400
C890        C  0.30748777  0.42201454  0.66987332     0.06200
C891        C  0.27633291  0.42690030  0.67136737     0.25800
C892        C  0.28149578  0.46266927  0.67322981    -0.11900
C893        C  0.31784233  0.49408601  0.67368548    -0.25800
C894        C  0.34903015  0.48867397  0.67346445     0.36600
C895        C  0.30254590  0.38499398  0.66613448     0.06200
F896        F  0.24101745  0.39731004  0.66996453    -0.19600
H897        H  0.25692099  0.46580403  0.67348484     0.16000
F898        F  0.38465102  0.51790639  0.67433455    -0.23300
H899        H  0.36796400  0.44918696  0.67065498     0.17800
C900        C  0.31705519  0.37856701  0.64983359     0.25800
C901        C  0.31536003  0.34442853  0.64712637    -0.11900
C902        C  0.29959707  0.31645639  0.66076385    -0.25900
C903        C  0.28297597  0.32228797  0.67657941     0.36700
C904        C  0.28446568  0.35636202  0.67916433    -0.27500
F905        F  0.33367172  0.40567699  0.63677473    -0.19600
H906        H  0.32826596  0.34073186  0.63482818     0.16000
F907        F  0.26662784  0.29574364  0.68992374    -0.23400
H908        H  0.27283036  0.36096472  0.69169864     0.17900
C909        C  0.36817920  0.97446223  0.64854768    -0.27400
C910        C  0.34775365  0.94486916  0.66086877     0.06200
C911        C  0.33067738  0.95046862  0.67644726     0.25800
C912        C  0.33173471  0.98434436  0.67890175    -0.11900
C913        C  0.34965944  0.01313269  0.66581841    -0.25800
C914        C  0.36908994  0.00838933  0.65091696     0.36600
C915        C  0.34316277  0.90780143  0.65722449     0.06200
F916        F  0.31216047  0.92279294  0.68905462    -0.19600
H917        H  0.31676297  0.98724526  0.69054927     0.16000
F918        F  0.38786297  0.03596821  0.63829421    -0.23300
H919        H  0.38205946  0.97073584  0.63665542     0.17800
C920        C  0.30714512  0.87622449  0.65630989     0.25800
C921        C  0.30282849  0.84069857  0.65501370    -0.11900
C922        C  0.33435009  0.83603390  0.65459614    -0.25900
C923        C  0.37047002  0.86803564  0.65406110     0.36700
C924        C  0.37468249  0.90358758  0.65536320    -0.27500
F925        F  0.27611705  0.87973785  0.65710977    -0.19600
H926        H  0.27471929  0.81678153  0.65518188     0.16000
F927        F  0.40182393  0.86512787  0.65302491    -0.23400
H928        H  0.40262383  0.92777072  0.65572163     0.17900
C929        C  0.21523525  0.92794337  0.77550104    -0.27400
C930        C  0.19076906  0.94167487  0.77201768     0.06200
C931        C  0.15873919  0.92939589  0.78325809     0.25800
C932        C  0.15185511  0.90441729  0.79784622    -0.11900
C933        C  0.17625084  0.89054527  0.80123317    -0.25800
C934        C  0.20814479  0.90268872  0.78994772     0.36600
C935        C  0.19970967  0.96947389  0.75696552     0.06200
F936        F  0.13358401  0.94072737  0.77982546    -0.19600
H937        H  0.12700229  0.89524311  0.80630691     0.16000
F938        F  0.23187059  0.88928043  0.79256750    -0.23300
H939        H  0.24011776  0.93704843  0.76707035     0.17800
C940        C  0.20137115  0.00367577  0.76052805     0.25800
C941        C  0.21398438  0.03135291  0.74683547    -0.11900
C942        C  0.22575241  0.02578174  0.72942277    -0.25900
C943        C  0.22240627  0.99086714  0.72557790     0.36700
C944        C  0.20952259  0.96310449  0.73923544    -0.27500
F945        F  0.19336858  0.01142106  0.77764940    -0.19600
H946        H  0.21660842  0.05801794  0.75026711     0.16000
F947        F  0.23239148  0.98379907  0.70877292    -0.23400
H948        H  0.20806719  0.93682679  0.73610963     0.17900
C949        C  0.27311079  0.26790115  0.76427275    -0.27400
C950        C  0.23480737  0.24829755  0.76899100     0.06200
C951        C  0.21160772  0.21326063  0.76077693     0.25800
C952        C  0.22627925  0.19885387  0.74773633    -0.11900
C953        C  0.26410615  0.21938139  0.74231966    -0.25800
C954        C  0.28762907  0.25375476  0.75102463     0.36600
C955        C  0.21891364  0.26575068  0.78139339     0.06200
F956        F  0.17420825  0.19417474  0.76431295    -0.19600
H957        H  0.20744284  0.17271037  0.74095591     0.16000
F958        F  0.32450130  0.27404433  0.74641824    -0.23300
H959        H  0.29165500  0.29473230  0.77053373     0.17800
C960        C  0.19556528  0.24623253  0.79653046     0.25800
C961        C  0.18076673  0.26325506  0.80787825    -0.11900
C962        C  0.18922157  0.30000450  0.80443473    -0.25900
C963        C  0.21281074  0.31965809  0.78950413     0.36700
C964        C  0.22722170  0.30257803  0.77802791    -0.27500
F965        F  0.18852940  0.21142066  0.80088366    -0.19600
H966        H  0.16383814  0.24828006  0.81978980     0.16000
F967        F  0.22272450  0.35577812  0.78636893    -0.23400
H968        H  0.24513414  0.31825787  0.76651539     0.17900
C969        C  0.38168030  0.06346880  0.56308778    -0.27400
C970        C  0.42085102  0.08014063  0.56093633     0.06200
C971        C  0.44392856  0.11435276  0.57003070     0.25800
C972        C  0.42818111  0.13001117  0.58168588    -0.11900
C973        C  0.38935650  0.11157134  0.58495223    -0.25800
C974        C  0.36612553  0.07850005  0.57522761     0.36600
C975        C  0.43715989  0.06084241  0.54997017     0.06200
F976        F  0.48185746  0.13142216  0.56880903    -0.19600
H977        H  0.44668518  0.15519416  0.58927751     0.16000
F978        F  0.32841865  0.06015011  0.57786505    -0.23300
H979        H  0.36295717  0.03803899  0.55575395     0.17800
C980        C  0.42182062  0.02180628  0.55122319     0.25800
C981        C  0.43631036  0.00373822  0.54050643    -0.11900
C982        C  0.46717946  0.02406921  0.52878373    -0.25900
C983        C  0.48338916  0.06304888  0.52787520     0.36700
C984        C  0.46824396  0.08111858  0.53818132    -0.27500
F985        F  0.39317744  0.00097915  0.56305714    -0.19600
H986        H  0.42350257  0.97368590  0.54141690     0.16000
F987        F  0.51292566  0.08347873  0.51643344    -0.23400
H988        H  0.48039536  0.11095511  0.53656508     0.17900
C989        C  0.46239414  0.38400360  0.53685554    -0.27400
C990        C  0.46337561  0.39350475  0.55564225     0.06200
C991        C  0.47478675  0.43074371  0.56021731     0.25800
C992        C  0.48353885  0.45737343  0.54627312    -0.11900
C993        C  0.48202748  0.44779772  0.52748024    -0.25800
C994        C  0.47155483  0.41080843  0.52288921     0.36600
C995        C  0.45041412  0.36413841  0.57025211     0.06200
F996        F  0.47765723  0.44146871  0.57820366    -0.19600
H997        H  0.49132800  0.48559088  0.55016777     0.16000
F998        F  0.47033945  0.40064797  0.50490142    -0.23300
H999        H  0.45366223  0.35554433  0.53297091     0.17800
C1000       C  0.42297794  0.36000106  0.58314830     0.25800
C1001       C  0.40930019  0.33132446  0.59625246    -0.11900
C1002       C  0.42200673  0.30544567  0.59675592    -0.25900
C1003       C  0.45005034  0.30995761  0.58404699     0.36700
C1004       C  0.46396174  0.33898665  0.57092239    -0.27500
F1005       F  0.40779123  0.38247971  0.58248688    -0.19600
H1006       H  0.38752886  0.32868827  0.60562195     0.16000
F1007       F  0.46362040  0.28610073  0.58403946    -0.23400
H1008       H  0.48516333  0.34167195  0.56114700     0.17900
C1009       C  0.94619071  0.25721389  0.99639699    -0.27400
C1010       C  0.96018961  0.24817084  0.98073376     0.06200
C1011       C  0.97182796  0.27224029  0.96533876     0.25800
C1012       C  0.97211026  0.30616712  0.96620518    -0.11900
C1013       C  0.96100264  0.31678925  0.98248584    -0.25800
C1014       C  0.94660372  0.29113722  0.99735568     0.36600
C1015       C  0.96613750  0.21573739  0.98143414     0.06200
F1016       F  0.98422521  0.26352018  0.94972784    -0.19600
H1017       H  0.98303175  0.32500167  0.95447780     0.16000
F1018       F  0.93470099  0.29948162  0.01325278    -0.23300
H1019       H  0.93689781  0.23889593  0.00836084     0.17800
C1020       C  0.00243274  0.22102750  0.97946673     0.25800
C1021       C  0.00882898  0.19121639  0.98196549    -0.11900
C1022       C  0.97925589  0.15544778  0.98657590    -0.25900
C1023       C  0.94265419  0.15003861  0.98814455     0.36700
C1024       C  0.93635778  0.18002432  0.98569607    -0.27500
F1025       F  0.03211600  0.25552268  0.97612568    -0.19600
H1026       H  0.03730651  0.19651469  0.98079540     0.16000
F1027       F  0.91301067  0.11612048  0.99249569    -0.23400
H1028       H  0.90824485  0.17551315  0.98739928     0.17900
C1029       C  0.06189579  0.81626503  0.01302055    -0.27400
C1030       C  0.03167221  0.78116815  0.01801323     0.06200
C1031       C  0.99670426  0.77821057  0.02175231     0.25800
C1032       C  0.99202394  0.80933994  0.02007342    -0.11900
C1033       C  0.02192243  0.84430081  0.01454954    -0.25800
C1034       C  0.05721289  0.84745844  0.01125653     0.36600
C1035       C  0.03598744  0.74739453  0.01839882     0.06200
F1036       F  0.96641514  0.74477160  0.02615412    -0.19600
H1037       H  0.96446457  0.80568490  0.02263824     0.16000
F1038       F  0.08709995  0.88037275  0.00586708    -0.23300
H1039       H  0.08922516  0.81949087  0.01027486     0.17800
C1040       C  0.05225994  0.73887478  0.00336893     0.25800
C1041       C  0.05205891  0.70494391  0.00283121    -0.11900
C1042       C  0.03568370  0.67858474  0.01721810    -0.25900
C1043       C  0.02130715  0.68808042  0.03275925     0.36700
C1044       C  0.02157790  0.72207159  0.03328294    -0.27500
F1045       F  0.06621826  0.76220880  0.98858521    -0.19600
H1046       H  0.06336161  0.69865675  0.99068055     0.16000
F1047       F  0.00503553  0.66379238  0.04703680    -0.23400
H1048       H  0.00950455  0.72818109  0.04518160     0.17900
C1049       C  0.10354766  0.66110464  0.89898523    -0.27400
C1050       C  0.10316090  0.69450907  0.90205155     0.06200
C1051       C  0.08819857  0.69854263  0.91887403     0.25800
C1052       C  0.07335312  0.66973497  0.93198594    -0.11900
C1053       C  0.07324174  0.63605760  0.92893649    -0.25800
C1054       C  0.08898043  0.63225686  0.91226868     0.36600
C1055       C  0.11677268  0.72443566  0.88753963     0.06200
F1056       F  0.08857297  0.73076225  0.92287433    -0.19600
H1057       H  0.06233109  0.67419877  0.94476523     0.16000
F1058       F  0.08997419  0.60061665  0.90865207    -0.23300
H1059       H  0.11454839  0.65701892  0.88610893     0.17800
C1060       C  0.15143957  0.73753412  0.87836763     0.25800
C1061       C  0.16328069  0.76555009  0.86472804    -0.11900
C1062       C  0.14096064  0.78122945  0.86003315    -0.25900
C1063       C  0.10652388  0.76829683  0.86933600     0.36700
C1064       C  0.09463214  0.74024699  0.88277989    -0.27500
F1065       F  0.17417884  0.72374872  0.88279716    -0.19600
H1066       H  0.18974394  0.77475809  0.85769962     0.16000
F1067       F  0.08435778  0.78307594  0.86551557    -0.23400
H1068       H  0.06767324  0.73055490  0.88938116     0.17900
C1069       C  0.13777848  0.42829776  0.86679472    -0.27400
C1070       C  0.13699061  0.42016560  0.88577142     0.06200
C1071       C  0.14768718  0.39418685  0.89131004     0.25800
C1072       C  0.15711275  0.37551965  0.87813048    -0.11900
C1073       C  0.15705279  0.38291730  0.85914374    -0.25800
C1074       C  0.14774074  0.40989337  0.85358293     0.36600
C1075       C  0.12134069  0.43544363  0.89961687     0.06200
F1076       F  0.14846742  0.38640083  0.90953762    -0.19600
H1077       H  0.16373077  0.35461995  0.88277995     0.16000
F1078       F  0.14790527  0.41813027  0.83534944    -0.23300
H1079       H  0.12937519  0.44790140  0.86214343     0.17800
C1080       C  0.13328662  0.47376431  0.90087889     0.25800
C1081       C  0.11767829  0.48670832  0.91431148    -0.11900
C1082       C  0.08978717  0.46168034  0.92663403    -0.25900
C1083       C  0.07782784  0.42329370  0.92506888     0.36700
C1084       C  0.09329661  0.41062850  0.91173824    -0.27500
F1085       F  0.16040515  0.49869848  0.88938847    -0.19600
H1086       H  0.12731423  0.51627316  0.91500483     0.16000
F1087       F  0.05076144  0.39744703  0.93627445    -0.23400
H1088       H  0.08290194  0.38092669  0.91077344     0.17900
C1089       C  0.26187216  0.31279165  0.00462955    -0.27400
C1090       C  0.25217592  0.29149637  0.02098820     0.06200
C1091       C  0.27729765  0.30483458  0.03600930     0.25800
C1092       C  0.31240879  0.33721915  0.03417478    -0.11900
C1093       C  0.32334302  0.35712858  0.01733379    -0.25800
C1094       C  0.29692805  0.34524637  0.00276759     0.36600
C1095       C  0.21819983  0.25355983  0.02143735     0.06200
F1096       F  0.26832750  0.28588823  0.05231392    -0.19600
H1097       H  0.33168211  0.34573594  0.04574964     0.16000
F1098       F  0.30547823  0.36374009  0.98633272    -0.23300
H1099       H  0.24310694  0.30315075  0.99283536     0.17800
C1100       C  0.18301902  0.24719511  0.01536303     0.25800
C1101       C  0.15266957  0.21067729  0.01377103    -0.11900
C1102       C  0.15669852  0.17962339  0.01806889    -0.25900
C1103       C  0.19160250  0.18627656  0.02489553     0.36700
C1104       C  0.22180217  0.22273966  0.02651493    -0.27500
F1105       F  0.17808150  0.27623927  0.01075243    -0.19600
H1106       H  0.12624270  0.20675203  0.00861981     0.16000
F1107       F  0.19720556  0.15762619  0.02941891    -0.23400
H1108       H  0.24866796  0.22679655  0.03103101     0.17900
C1109       C  0.74691131  0.69011467  0.99541963    -0.27400
C1110       C  0.75656734  0.71086888  0.97889758     0.06200
C1111       C  0.73332294  0.69553159  0.96331397     0.25800
C1112       C  0.69945036  0.66171387  0.96480763    -0.11900
C1113       C  0.68829621  0.64235537  0.98180126    -0.25800
C1114       C  0.71336189  0.65618998  0.99689903     0.36600
C1115       C  0.78943813  0.74932457  0.97872675     0.06200
F1116       F  0.74294585  0.71358757  0.94676159    -0.19600
H1117       H  0.68121526  0.65155591  0.95282816     0.16000
F1118       F  0.70473561  0.63818442  0.01347246    -0.23300
H1119       H  0.76451536  0.70111088  0.00758127     0.17800
C1120       C  0.78599636  0.77984195  0.97269943     0.25800
C1121       C  0.81552890  0.81640638  0.97523603    -0.11900
C1122       C  0.84899382  0.82336916  0.98390915    -0.25900
C1123       C  0.85282248  0.79262502  0.98927427     0.36700
C1124       C  0.82338095  0.75619612  0.98666804    -0.27500
F1125       F  0.75325733  0.77453848  0.96548388    -0.19600
H1126       H  0.81163208  0.83931718  0.97097012     0.16000
F1127       F  0.88431951  0.79747975  0.99781406    -0.23400
H1128       H  0.82670578  0.73318884  0.99140857     0.17900
C1129       C  0.58980906  0.69088688  0.91869525    -0.27400
C1130       C  0.56525368  0.69110387  0.90531669     0.06200
C1131       C  0.52744015  0.66241973  0.90558870     0.25800
C1132       C  0.51502844  0.63356326  0.91872896    -0.11900
C1133       C  0.54011016  0.63281903  0.93175344    -0.25800
C1134       C  0.57755852  0.66247944  0.93180996     0.36600
C1135       C  0.58062776  0.72031777  0.89068799     0.06200
F1136       F  0.50261108  0.66219269  0.89315167    -0.19600
H1137       H  0.48605190  0.61130969  0.91837787     0.16000
F1138       F  0.60292403  0.66387673  0.94426639    -0.23300
H1139       H  0.61915570  0.71228559  0.91865637     0.17800
C1140       C  0.60542805  0.75777568  0.89540682     0.25800
C1141       C  0.62520121  0.78409357  0.88164448    -0.11900
C1142       C  0.61940504  0.77422967  0.86281504    -0.25900
C1143       C  0.59341615  0.73712997  0.85800074     0.36700
C1144       C  0.57441164  0.71039955  0.87184667    -0.27500
F1145       F  0.61093145  0.76886937  0.91339824    -0.19600
H1146       H  0.64526719  0.81234971  0.88573996     0.16000
F1147       F  0.58650785  0.72672353  0.83993811    -0.23400
H1148       H  0.55579552  0.68168922  0.86784724     0.17900
C1149       C  0.34933496  0.44990314  0.89889517    -0.27400
C1150       C  0.31195716  0.42336750  0.90323493     0.06200
C1151       C  0.30326564  0.40906099  0.92137873     0.25800
C1152       C  0.33153093  0.41973487  0.93459129    -0.11900
C1153       C  0.36906836  0.44549069  0.93021294    -0.25800
C1154       C  0.37769561  0.46113860  0.91229053     0.36600
C1155       C  0.28258286  0.40816380  0.88862620     0.06200
F1156       F  0.26728030  0.38474630  0.92636957    -0.19600
H1157       H  0.32389216  0.40804613  0.94841868     0.16000
F1158       F  0.41358819  0.48617980  0.90751902    -0.23300
H1159       H  0.35675261  0.46107265  0.88497146     0.17800
C1160       C  0.27626882  0.43147687  0.87672695     0.25800
C1161       C  0.24850975  0.41590905  0.86296064    -0.11900
C1162       C  0.22701941  0.37702389  0.86082329    -0.25900
C1163       C  0.23324333  0.35389541  0.87276763     0.36700
C1164       C  0.26068929  0.36932554  0.88647218    -0.27500
F1165       F  0.29653264  0.46912246  0.87855926    -0.19600
H1166       H  0.24404865  0.43410472  0.85383307     0.16000
F1167       F  0.21252094  0.31621148  0.87119704    -0.23400
H1168       H  0.26524121  0.35078884  0.89529989     0.17900
C1169       C  0.78684603  0.00861345  0.01633288    -0.27400
C1170       C  0.75859902  0.98337740  0.00447082     0.06200
C1171       C  0.76321811  0.95613068  0.99521147     0.25800
C1172       C  0.79659301  0.95546664  0.99714171    -0.11900
C1173       C  0.82583726  0.98224308  0.00813673    -0.25800
C1174       C  0.82019008  0.00811845  0.01821421     0.36600
C1175       C  0.72528992  0.98700301  0.00134501     0.06200
F1176       F  0.73584512  0.93077710  0.98401723    -0.19600
H1177       H  0.80031172  0.93533687  0.98921691     0.16000
F1178       F  0.84740075  0.03390576  0.02933388    -0.23300
H1179       H  0.78368307  0.02978222  0.02358542     0.17800
C1180       C  0.70479325  0.98861520  0.01648462     0.25800
C1181       C  0.67482272  0.99452814  0.01357685    -0.11900
C1182       C  0.66436108  0.99839202  0.99552486    -0.25900
C1183       C  0.68472332  0.99656499  0.98031897     0.36700
C1184       C  0.71518268  0.99112006  0.98326625    -0.27500
F1185       F  0.71326975  0.98363892  0.03406430    -0.19600
H1186       H  0.65899655  0.99489874  0.02550537     0.16000
F1187       F  0.67556765  0.00054538  0.96272770    -0.23400
H1188       H  0.73121186  0.99059941  0.97146740     0.17900
C1189       C  0.26806368  0.97177359  0.99422237    -0.27400
C1190       C  0.27216428  0.00625099  0.99972233     0.06200
C1191       C  0.30562339  0.03260433  0.00841480     0.25800
C1192       C  0.33414671  0.02455071  0.01146011    -0.11900
C1193       C  0.33058161  0.99084579  0.00528362    -0.25800
C1194       C  0.29737777  0.96440087  0.99660387     0.36600
C1195       C  0.24106612  0.01396495  0.99702367     0.06200
F1196       F  0.31157373  0.06682934  0.01324325    -0.19600
H1197       H  0.36005340  0.04569967  0.01772161     0.16000
F1198       F  0.29334218  0.93160872  0.99046936    -0.23300
H1199       H  0.24218468  0.95050288  0.98804008     0.17800
C1200       C  0.21943922  0.00310408  0.98068035     0.25800
C1201       C  0.18714136  0.00594881  0.97952733    -0.11900
C1202       C  0.17702115  0.02113040  0.99426748    -0.25900
C1203       C  0.20021215  0.03485871  0.00989125     0.36700
C1204       C  0.23147708  0.03054485  0.01140110    -0.27500
F1205       F  0.22897743  0.98900459  0.96602154    -0.19600
H1206       H  0.16940306  0.99529572  0.96738782     0.16000
F1207       F  0.19060946  0.04906789  0.02449250    -0.23400
H1208       H  0.24698873  0.03844570  0.02428982     0.17900
C1209       C  0.34131963  0.89380666  0.89609914    -0.27400
C1210       C  0.31183135  0.90177750  0.89675109     0.06200
C1211       C  0.31325778  0.92683251  0.91032727     0.25800
C1212       C  0.34239863  0.94217101  0.92328378    -0.11900
C1213       C  0.37117135  0.93315371  0.92320525    -0.25800
C1214       C  0.37070953  0.90929437  0.90911327     0.36600
C1215       C  0.27958333  0.88401298  0.88346851     0.06200
F1216       F  0.28648448  0.93677024  0.91107546    -0.19600
H1217       H  0.34177207  0.96059748  0.93374517     0.16000
F1218       F  0.39806088  0.90018747  0.90809193    -0.23300
H1219       H  0.34110215  0.87470270  0.88579185     0.17800
C1220       C  0.28553136  0.88324421  0.86429910     0.25800
C1221       C  0.25516541  0.86830377  0.85196631    -0.11900
C1222       C  0.21807679  0.85437774  0.85826396    -0.25900
C1223       C  0.21208455  0.85490378  0.87747054     0.36700
C1224       C  0.24240943  0.86894804  0.88986777    -0.27500
F1225       F  0.32083548  0.89870751  0.85732894    -0.19600
H1226       H  0.26079303  0.86867107  0.83726797     0.16000
F1227       F  0.17732318  0.84379227  0.88426010    -0.23400
H1228       H  0.23684224  0.86882499  0.90455228     0.17900
C1229       C  0.61808646  0.88265804  0.88787483    -0.27400
C1230       C  0.57914831  0.85906672  0.88978320     0.06200
C1231       C  0.56014607  0.82936428  0.87727688     0.25800
C1232       C  0.58005049  0.82294788  0.86344482    -0.11900
C1233       C  0.61910391  0.84593964  0.86194095    -0.25800
C1234       C  0.63794900  0.87620294  0.87409604     0.36600
C1235       C  0.55884350  0.86616499  0.90473497     0.06200
F1236       F  0.52260649  0.80589774  0.87880085    -0.19600
H1237       H  0.56514995  0.79958100  0.85410801     0.16000
F1238       F  0.67574682  0.89866480  0.87304754    -0.23300
H1239       H  0.63317996  0.90612723  0.89713156     0.17800
C1240       C  0.57239873  0.87230118  0.92302069     0.25800
C1241       C  0.55610764  0.88375670  0.93655813    -0.11900
C1242       C  0.52587538  0.88914123  0.93219152    -0.25900
C1243       C  0.51074410  0.88061405  0.91418138     0.36700
C1244       C  0.52725237  0.86935038  0.90058639    -0.27500
F1245       F  0.60202709  0.86812692  0.92768951    -0.19600
H1246       H  0.56813035  0.88981134  0.95034514     0.16000
F1247       F  0.48193403  0.88590497  0.90928467    -0.23400
H1248       H  0.51651599  0.86497997  0.88655743     0.17900
C1249       C  0.89905982  0.62845975  0.11258998    -0.27400
C1250       C  0.87791789  0.58922923  0.11210930     0.06200
C1251       C  0.84876326  0.57059182  0.12509079     0.25800
C1252       C  0.84056680  0.59091615  0.13793489    -0.11900
C1253       C  0.86147256  0.63007543  0.13820757    -0.25800
C1254       C  0.89100123  0.64870859  0.12549102     0.36600
C1255       C  0.88635478  0.56834620  0.09788350     0.06200
F1256       F  0.82761845  0.53281559  0.12507927    -0.19600
H1257       H  0.81789269  0.57609020  0.14774748     0.16000
F1258       F  0.91154691  0.68653973  0.12531672    -0.23300
H1259       H  0.92203512  0.64350746  0.10296243     0.17800
C1260       C  0.89117049  0.57953018  0.07918376     0.25800
C1261       C  0.90249630  0.56229640  0.06610827    -0.11900
C1262       C  0.90884171  0.53319325  0.07123659    -0.25900
C1263       C  0.90221114  0.52057025  0.08971804     0.36700
C1264       C  0.89121601  0.53816743  0.10292525    -0.27500
F1265       F  0.88533834  0.60749907  0.07354884    -0.19600
H1266       H  0.90729297  0.57242305  0.05194557     0.16000
F1267       F  0.90894716  0.49315395  0.09529091    -0.23400
H1268       H  0.88802045  0.52921421  0.11725120     0.17900
C1269       C  0.69630669  0.60885809  0.08571333    -0.27400
C1270       C  0.69946529  0.58351739  0.09743306     0.06200
C1271       C  0.67284850  0.54526876  0.09579816     0.25800
C1272       C  0.64453040  0.53278296  0.08228649    -0.11900
C1273       C  0.64211412  0.55811954  0.07013213    -0.25800
C1274       C  0.66819777  0.59654088  0.07225649     0.36600
C1275       C  0.73041140  0.59760584  0.11132655     0.06200
F1276       F  0.67502193  0.51980797  0.10678935    -0.19600
H1277       H  0.62511367  0.50312992  0.08102025     0.16000
F1278       F  0.66688646  0.62251928  0.06128639    -0.23300
H1279       H  0.71576028  0.63851223  0.08699424     0.17800
C1280       C  0.76768807  0.62328214  0.10617097     0.25800
C1281       C  0.79605093  0.63889422  0.11956058    -0.11900
C1282       C  0.78799664  0.62918430  0.13834394    -0.25900
C1283       C  0.75103817  0.60264312  0.14343498     0.36700
C1284       C  0.72261807  0.58705414  0.13005129    -0.27500
F1285       F  0.77668282  0.63352725  0.08817363    -0.19600
H1286       H  0.82418982  0.65948646  0.11531728     0.16000
F1287       F  0.74232738  0.59219510  0.16142685    -0.23400
H1288       H  0.69421111  0.56759111  0.13443217     0.17900
C1289       C  0.61105172  0.08973673  0.31442045    -0.27400
C1290       C  0.64389302  0.08757759  0.31324926     0.06200
C1291       C  0.67882931  0.12067586  0.31383042     0.25800
C1292       C  0.68076077  0.15508910  0.31651287    -0.11900
C1293       C  0.64790780  0.15728260  0.31851042    -0.25800
C1294       C  0.61286314  0.12412910  0.31688313     0.36600
C1295       C  0.64173476  0.05072152  0.31310067     0.06200
F1296       F  0.71114554  0.11951175  0.31287196    -0.19600
H1297       H  0.70811773  0.17992328  0.31758024     0.16000
F1298       F  0.58019445  0.12450194  0.31837072    -0.23300
H1299       H  0.58387956  0.06453229  0.31386624     0.17800
C1300       C  0.62487263  0.02581846  0.32796164     0.25800
C1301       C  0.62667793  0.99302370  0.32900553    -0.11900
C1302       C  0.64512205  0.98415295  0.31520372    -0.25900
C1303       C  0.66018217  0.00823513  0.29975498     0.36700
C1304       C  0.65868691  0.04128476  0.29885483    -0.27500
F1305       F  0.60862656  0.03432906  0.34207289    -0.19600
H1306       H  0.61477622  0.97523583  0.34104321     0.16000
F1307       F  0.67803252  0.00099030  0.28594206    -0.23400
H1308       H  0.67159372  0.06003577  0.28722608     0.17900
C1309       C  0.72126353  0.64250655  0.34268160    -0.27400
C1310       C  0.70176235  0.61842481  0.35747776     0.06200
C1311       C  0.68428220  0.62958452  0.37068463     0.25800
C1312       C  0.68537465  0.66373050  0.36874155    -0.11900
C1313       C  0.70353946  0.68726901  0.35348552    -0.25800
C1314       C  0.72201793  0.67646180  0.34058269     0.36600
C1315       C  0.69897450  0.58135786  0.35853360     0.06200
F1316       F  0.66591323  0.60735648  0.38538413    -0.19600
H1317       H  0.67068852  0.67104028  0.37886503     0.16000
F1318       F  0.74006914  0.69816028  0.32568458    -0.23300
H1319       H  0.73493296  0.63438749  0.33235443     0.17800
C1320       C  0.66387594  0.54836836  0.35893088     0.25800
C1321       C  0.66164732  0.51358623  0.35769054    -0.11900
C1322       C  0.69430776  0.51096717  0.35605310    -0.25900
C1323       C  0.72950477  0.54411332  0.35658559     0.36700
C1324       C  0.73162509  0.57881107  0.35769296    -0.27500
F1325       F  0.63165658  0.54977705  0.35937001    -0.19600
H1326       H  0.63419438  0.48873208  0.35733657     0.16000
F1327       F  0.76198533  0.54336473  0.35513055    -0.23400
H1328       H  0.75891011  0.60391595  0.35744951     0.17900
C1329       C  0.56821738  0.97193731  0.45071411    -0.27400
C1330       C  0.55264792  0.93372548  0.44699138     0.06200
C1331       C  0.52081862  0.90792274  0.45708406     0.25800
C1332       C  0.50490717  0.92030059  0.47054569    -0.11900
C1333       C  0.52054129  0.95856065  0.47422007    -0.25800
C1334       C  0.55244391  0.98427723  0.46415704     0.36600
C1335       C  0.56926628  0.92127715  0.43225632     0.06200
F1336       F  0.50464280  0.87082744  0.45363492    -0.19600
H1337       H  0.48052924  0.90001457  0.47821123     0.16000
F1338       F  0.56810809  0.02148945  0.46718012    -0.23300
H1339       H  0.59281658  0.99232329  0.44321282     0.17800
C1340       C  0.57542005  0.93678905  0.41436197     0.25800
C1341       C  0.59101855  0.92514124  0.40050741    -0.11900
C1342       C  0.60058081  0.89754435  0.40406575    -0.25900
C1343       C  0.59474096  0.88217184  0.42200722     0.36700
C1344       C  0.57928046  0.89403823  0.43595518    -0.27500
F1345       F  0.56525290  0.96243208  0.41009036    -0.19600
H1346       H  0.59480570  0.93718203  0.38678298     0.16000
F1347       F  0.60468048  0.85632507  0.42616988    -0.23400
H1348       H  0.57537907  0.88215732  0.44971836     0.17900
C1349       C  0.53178413  0.67035156  0.42782512    -0.27400
C1350       C  0.54459551  0.64451635  0.42837404     0.06200
C1351       C  0.57115897  0.64784014  0.41511823     0.25800
C1352       C  0.58509662  0.67656634  0.40207757    -0.11900
C1353       C  0.57372698  0.70351644  0.40191905    -0.25800
C1354       C  0.54619866  0.69964151  0.41477727     0.36600
C1355       C  0.53166204  0.61498820  0.44300739     0.06200
F1356       F  0.58541413  0.62453599  0.41532367    -0.19600
H1357       H  0.60611776  0.67832081  0.39244269     0.16000
F1358       F  0.53395313  0.72455565  0.41513346    -0.23300
H1359       H  0.51087276  0.66811612  0.43766173     0.17800
C1360       C  0.53121344  0.62353058  0.46189423     0.25800
C1361       C  0.52219301  0.59618559  0.47557338    -0.11900
C1362       C  0.51357429  0.55987945  0.47075754    -0.25900
C1363       C  0.51413023  0.55135524  0.45192834     0.36700
C1364       C  0.52239916  0.57839020  0.43825613    -0.27500
F1365       F  0.54101070  0.65866910  0.46722847    -0.19600
H1366       H  0.52219034  0.60341574  0.49000396     0.16000
F1367       F  0.50781835  0.51717724  0.44676977    -0.23400
H1368       H  0.52221081  0.57080741  0.42387490     0.17900
C1369       C  0.79889616  0.78734614  0.24046932    -0.27400
C1370       C  0.78491861  0.74891040  0.23815149     0.06200
C1371       C  0.75528880  0.72369958  0.24956510     0.25800
C1372       C  0.74002577  0.73675476  0.26292040    -0.11900
C1373       C  0.75380466  0.77522016  0.26524691    -0.25800
C1374       C  0.78361135  0.80047836  0.25384117     0.36600
C1375       C  0.80061511  0.73519067  0.22356965     0.06200
F1376       F  0.74041892  0.68632735  0.24753092    -0.19600
H1377       H  0.71722646  0.71654041  0.27146631     0.16000
F1378       F  0.79875682  0.83787282  0.25588156    -0.23300
H1379       H  0.82205771  0.80731699  0.23201919     0.17800
C1380       C  0.80395333  0.74763057  0.20512570     0.25800
C1381       C  0.81658023  0.73295654  0.19125898    -0.11900
C1382       C  0.82647386  0.70594959  0.19551227    -0.25900
C1383       C  0.82384776  0.69392336  0.21396624     0.36700
C1384       C  0.81109667  0.70851208  0.22785616    -0.27500
F1385       F  0.79351788  0.77283623  0.20035767    -0.19600
H1386       H  0.81822317  0.74233042  0.17708207     0.16000
F1387       F  0.83237010  0.66717338  0.21842153    -0.23400
H1388       H  0.80905043  0.69869752  0.24196840     0.17900
C1389       C  0.36235406  0.07469828  0.34230028    -0.27400
C1390       C  0.38550453  0.08084730  0.35773625     0.06200
C1391       C  0.37252353  0.05421804  0.37204982     0.25800
C1392       C  0.33791340  0.02121936  0.37043348    -0.11900
C1393       C  0.31559801  0.01396692  0.35447419    -0.25800
C1394       C  0.32785678  0.04168360  0.34060063     0.36600
C1395       C  0.42339883  0.11463957  0.35838960     0.06200
F1396       F  0.39346922  0.05993950  0.38751637    -0.19600
H1397       H  0.32936352  0.00064169  0.38139199     0.16000
F1398       F  0.30723878  0.03651312  0.32506199    -0.23300
H1399       H  0.37167116  0.09498939  0.33116391     0.17800
C1400       C  0.45587758  0.11186183  0.36074728     0.25800
C1401       C  0.49157595  0.14371839  0.35945716    -0.11900
C1402       C  0.49552789  0.17892350  0.35605632    -0.25900
C1403       C  0.46290213  0.18169285  0.35421067     0.36700
C1404       C  0.42737441  0.14986168  0.35526671    -0.27500
F1405       F  0.45317436  0.07813717  0.36334261    -0.19600
H1406       H  0.51615609  0.14076487  0.36078358     0.16000
F1407       F  0.46520321  0.21485942  0.35033195    -0.23400
H1408       H  0.40279927  0.15262398  0.35330418     0.17900
C1409       C  0.97054421  0.60838933  0.29771257    -0.27400
C1410       C  0.95428768  0.58812072  0.31402606     0.06200
C1411       C  0.97398804  0.60064454  0.33077672     0.25800
C1412       C  0.00817541  0.63405363  0.33141329    -0.11900
C1413       C  0.02341544  0.65612550  0.31540135    -0.25800
C1414       C  0.00476084  0.64225078  0.29834491     0.36600
C1415       C  0.91569606  0.55556546  0.31404072     0.06200
F1416       F  0.95943649  0.58111551  0.34670122    -0.19600
H1417       H  0.02170618  0.64351659  0.34475589     0.16000
F1418       F  0.01866881  0.66195656  0.28242475    -0.23300
H1419       H  0.95585207  0.59888845  0.28463972     0.17800
C1420       C  0.88741490  0.55683955  0.32435841     0.25800
C1421       C  0.85185385  0.52522206  0.32595657    -0.11900
C1422       C  0.84371275  0.49140061  0.31747848    -0.25900
C1423       C  0.87173886  0.49063298  0.30646964     0.36700
C1424       C  0.90731304  0.52258470  0.30471345    -0.27500
F1425       F  0.89449830  0.58860903  0.33323682    -0.19600
H1426       H  0.83110810  0.52695048  0.33447796     0.16000
F1427       F  0.86523796  0.45887723  0.29778567    -0.23400
H1428       H  0.92876716  0.52119708  0.29663456     0.17900
C1429       C  0.11108897  0.67057019  0.43189604    -0.27400
C1430       C  0.07707851  0.63717253  0.42891746     0.06200
C1431       C  0.05724717  0.63332830  0.41241434     0.25800
C1432       C  0.07055118  0.66242284  0.39955318    -0.11900
C1433       C  0.10434121  0.69602228  0.40251940    -0.25800
C1434       C  0.12482014  0.69961633  0.41880576     0.36600
C1435       C  0.06135030  0.60703209  0.44322678     0.06200
F1436       F  0.02522829  0.60104051  0.40846538    -0.19600
H1437       H  0.05446505  0.65821293  0.38701196     0.16000
F1438       F  0.15787124  0.73119386  0.42222295    -0.23300
H1439       H  0.12678083  0.67449312  0.44454239     0.17800
C1440       C  0.08359184  0.59460678  0.45213672     0.25800
C1441       C  0.06780988  0.56622010  0.46556445    -0.11900
C1442       C  0.02955373  0.54941231  0.47019668    -0.25900
C1443       C  0.00740103  0.56166049  0.46114038     0.36700
C1444       C  0.02322353  0.59028950  0.44802892    -0.27500
F1445       F  0.12035604  0.60938027  0.44766397    -0.19600
H1446       H  0.08555808  0.55758322  0.47246789     0.16000
F1447       F  0.97016764  0.54564656  0.46485292    -0.23400
H1448       H  0.00550197  0.59959235  0.44168435     0.17900
C1449       C  0.34880405  0.91656437  0.42201229    -0.27400
C1450       C  0.35201347  0.89093536  0.43344598     0.06200
C1451       C  0.32545794  0.85267962  0.43154631     0.25800
C1452       C  0.29707257  0.84063351  0.41805738    -0.11900
C1453       C  0.29455441  0.86647529  0.40630756    -0.25800
C1454       C  0.32094584  0.90476883  0.40857686     0.36600
C1455       C  0.38294606  0.90527961  0.44732858     0.06200
F1456       F  0.32723141  0.82692266  0.44247689    -0.19600
H1457       H  0.27701065  0.81112115  0.41687018     0.16000
F1458       F  0.31996106  0.93136353  0.39796808    -0.23300
H1459       H  0.36790425  0.94623131  0.42357872     0.17800
C1460       C  0.41947617  0.93339188  0.44236364     0.25800
C1461       C  0.44711684  0.95123161  0.45588164    -0.11900
C1462       C  0.43932546  0.94095112  0.47458678    -0.25900
C1463       C  0.40355813  0.91135446  0.47945397     0.36700
C1464       C  0.37562652  0.89384074  0.46595422    -0.27500
F1465       F  0.42822787  0.94438830  0.42443560    -0.19600
H1466       H  0.47425636  0.97412425  0.45179454     0.16000
F1467       F  0.39531874  0.90020582  0.49739195    -0.23400
H1468       H  0.34781312  0.87253459  0.47022673     0.17900
C1469       C  0.01832291  0.80929499  0.23236453    -0.27400
C1470       C  0.98492218  0.77549781  0.23573893     0.06200
C1471       C  0.97909319  0.75906365  0.25338331     0.25800
C1472       C  0.00715236  0.77445264  0.26682612    -0.11900
C1473       C  0.04163070  0.80681200  0.26313544    -0.25800
C1474       C  0.04650319  0.82498443  0.24596484     0.36600
C1475       C  0.95757427  0.75543164  0.22061069     0.06200
F1476       F  0.94652635  0.72737217  0.25745587    -0.19600
H1477       H  0.00233706  0.76020262  0.28001567     0.16000
F1478       F  0.07937677  0.85625069  0.24180905    -0.23300
H1479       H  0.02340431  0.82247965  0.21887360     0.17800
C1480       C  0.94159897  0.77252391  0.21006674     0.25800
C1481       C  0.91452820  0.75205505  0.19652753    -0.11900
C1482       C  0.90299887  0.71429389  0.19326219    -0.25900
C1483       C  0.91982344  0.69765717  0.20346838     0.36700
C1484       C  0.94673771  0.71803082  0.21695048    -0.27500
F1485       F  0.95123523  0.80853130  0.21325328    -0.19600
H1486       H  0.90230342  0.76559931  0.18866462     0.16000
F1487       F  0.90935057  0.66127210  0.20082963    -0.23400
H1488       H  0.95902929  0.70441069  0.22470865     0.17900
C1489       C  0.92546935  0.30804534  0.08690866    -0.27400
C1490       C  0.89665105  0.30510058  0.09849321     0.06200
C1491       C  0.88607371  0.33251415  0.09706532     0.25800
C1492       C  0.90309177  0.36130966  0.08389541    -0.11900
C1493       C  0.93108822  0.36356767  0.07182870    -0.25800
C1494       C  0.94251799  0.33676609  0.07376802     0.36600
C1495       C  0.87825422  0.27362655  0.11206437     0.06200
F1496       F  0.85819165  0.33063762  0.10788265    -0.19600
H1497       H  0.89340994  0.38119581  0.08276099     0.16000
F1498       F  0.97002305  0.33796638  0.06289222    -0.23300
H1499       H  0.93485911  0.28792106  0.08803013     0.17800
C1500       C  0.86499100  0.23639931  0.10654825     0.25800
C1501       C  0.85053437  0.20740402  0.11966316    -0.11900
C1502       C  0.84899338  0.21486105  0.13853259    -0.25900
C1503       C  0.86089571  0.25183116  0.14394389     0.36700
C1504       C  0.87526401  0.28077983  0.13084896    -0.27500
F1505       F  0.86637017  0.22808616  0.08847102    -0.19600
H1506       H  0.84190471  0.17929407  0.11517175     0.16000
F1507       F  0.85953748  0.26007880  0.16204394    -0.23400
H1508       H  0.88534143  0.30907619  0.13552115     0.17900
C1509       C  0.72747655  0.14504896  0.12231575    -0.27400
C1510       C  0.71549260  0.11068209  0.11333061     0.06200
C1511       C  0.73374261  0.09053910  0.11756447     0.25800
C1512       C  0.76360599  0.10473650  0.12998489    -0.11900
C1513       C  0.77576276  0.13894823  0.13895279    -0.25800
C1514       C  0.75720392  0.15900220  0.13514865     0.36600
C1515       C  0.68507288  0.09587275  0.09911172     0.06200
F1516       F  0.72210198  0.05644492  0.11002015    -0.19600
H1517       H  0.77705612  0.08851278  0.13286446     0.16000
F1518       F  0.76699951  0.19134113  0.14418335    -0.23300
H1519       H  0.71401136  0.16118806  0.11932198     0.17800
C1520       C  0.65031857  0.09402455  0.10207208     0.25800
C1521       C  0.62155323  0.07731479  0.08878612    -0.11900
C1522       C  0.62675191  0.06176486  0.07246744    -0.25900
C1523       C  0.66189032  0.06453440  0.06944472     0.36700
C1524       C  0.69053448  0.08168115  0.08246620    -0.27500
F1525       F  0.64373297  0.10733470  0.11796734    -0.19600
H1526       H  0.59508388  0.07617441  0.09135448     0.16000
F1527       F  0.66924621  0.05168168  0.05359354    -0.23400
H1528       H  0.71732113  0.08379442  0.07949271     0.17900
C1529       C  0.78791516  0.06680572  0.22171234    -0.27400
C1530       C  0.80970781  0.04933226  0.22216866     0.06200
C1531       C  0.83678775  0.05799027  0.20819197     0.25800
C1532       C  0.84247926  0.08434010  0.19444942    -0.11900
C1533       C  0.82101192  0.10211070  0.19427202    -0.25800
C1534       C  0.79340059  0.09282854  0.20792482     0.36600
C1535       C  0.80330411  0.02195278  0.23717746     0.06200
F1536       F  0.85840323  0.04178252  0.20809620    -0.19600
H1537       H  0.86387573  0.09116715  0.18399804     0.16000
F1538       F  0.77254755  0.10986173  0.20825153    -0.23300
H1539       H  0.76639875  0.06016797  0.23206965     0.17800
C1540       C  0.80010848  0.03034088  0.25577277     0.25800
C1541       C  0.78817046  0.00273278  0.26944481    -0.11900
C1542       C  0.78001034  0.96641265  0.26501783    -0.25900
C1543       C  0.78595706  0.95867791  0.24672749     0.36700
C1544       C  0.79728034  0.98619880  0.23292527    -0.27500
F1545       F  0.80758444  0.06505522  0.26065424    -0.19600
H1546       H  0.78405502  0.00941326  0.28345968     0.16000
F1547       F  0.77774982  0.92373622  0.24186030    -0.23400
H1548       H  0.79933391  0.97891622  0.21872634     0.17900
C1549       C  0.44021579  0.28783270  0.12688065    -0.27400
C1550       C  0.42835308  0.27768624  0.10847995     0.06200
C1551       C  0.39923195  0.24110229  0.10478363     0.25800
C1552       C  0.38133791  0.21589304  0.11931226    -0.11900
C1553       C  0.39240640  0.22649431  0.13774498    -0.25800
C1554       C  0.42232135  0.26255565  0.14141095     0.36600
C1555       C  0.44370444  0.30634938  0.09356807     0.06200
F1556       F  0.38787563  0.22985896  0.08711616    -0.19600
H1557       H  0.35859502  0.18809788  0.11620748     0.16000
F1558       F  0.43437031  0.27314896  0.15905482    -0.23300
H1559       H  0.46252472  0.31579763  0.13006255     0.17800
C1560       C  0.41910693  0.31245092  0.08264840     0.25800
C1561       C  0.43298240  0.34094007  0.06951509    -0.11900
C1562       C  0.47183311  0.36482199  0.06702781    -0.25900
C1563       C  0.49669057  0.35840912  0.07775604     0.36700
C1564       C  0.48262002  0.32943612  0.09094265    -0.27500
F1565       F  0.38145968  0.29220869  0.08539332    -0.19600
H1566       H  0.41285079  0.34501671  0.06172035     0.16000
F1567       F  0.53438305  0.38034930  0.07580050    -0.23400
H1568       H  0.50208999  0.32527262  0.09927531     0.17900
C1569       C  0.44583163  0.16738873  0.12095177    -0.27400
C1570       C  0.42399195  0.13460194  0.11073721     0.06200
C1571       C  0.38634097  0.11087789  0.11599542     0.25800
C1572       C  0.37049333  0.12091744  0.13043627    -0.11900
C1573       C  0.39191054  0.15439190  0.14014617    -0.25800
C1574       C  0.43012186  0.17704691  0.13564770     0.36600
C1575       C  0.44073669  0.12472746  0.09499271     0.06200
F1576       F  0.36500271  0.07761489  0.10741219    -0.19600
H1577       H  0.34120418  0.10273859  0.13389389     0.16000
F1578       F  0.45225634  0.20846149  0.14547267    -0.23300
H1579       H  0.47504072  0.18575382  0.11742693     0.17800
C1580       C  0.42181837  0.11269040  0.07795221     0.25800
C1581       C  0.43583128  0.09968455  0.06396415    -0.11900
C1582       C  0.46928852  0.09888634  0.06649159    -0.25900
C1583       C  0.48964555  0.11350432  0.08302691     0.36700
C1584       C  0.47535886  0.12616715  0.09711767    -0.27500
F1585       F  0.38953259  0.11313029  0.07485740    -0.19600
H1586       H  0.41982947  0.08923236  0.05128785     0.16000
F1587       F  0.52214475  0.11349495  0.08611293    -0.23400
H1588       H  0.49063222  0.13562878  0.11004185     0.17900
C1589       C  0.23611815  0.00114892  0.23530542    -0.27400
C1590       C  0.26735152  0.03594673  0.23986394     0.06200
C1591       C  0.28227403  0.04109276  0.25785461     0.25800
C1592       C  0.26736935  0.01174718  0.27061479    -0.11900
C1593       C  0.23664613  0.97663769  0.26602158    -0.25800
C1594       C  0.22072157  0.97179414  0.24825146     0.36600
C1595       C  0.28477141  0.06642669  0.22578937     0.06200
F1596       F  0.31082053  0.07480659  0.26330202    -0.19600
H1597       H  0.27967794  0.01684075  0.28432469     0.16000
F1598       F  0.19088792  0.93859363  0.24322621    -0.23300
H1599       H  0.22402601  0.99646800  0.22156147     0.17800
C1600       C  0.32383963  0.08561594  0.22278152     0.25800
C1601       C  0.33996830  0.11360467  0.20932127    -0.11900
C1602       C  0.31770831  0.12298862  0.19839882    -0.25900
C1603       C  0.27868451  0.10392431  0.20130274     0.36700
C1604       C  0.26244484  0.07597051  0.21491184    -0.27500
F1605       F  0.34637117  0.07620007  0.23224937    -0.19600
H1606       H  0.37000494  0.12749936  0.20708382     0.16000
F1607       F  0.25616067  0.11120129  0.19048673    -0.23400
H1608       H  0.23232544  0.06152998  0.21686656     0.17900
C1609       C  0.39020166  0.34342606  0.35152091    -0.27400
C1610       C  0.39945179  0.32981946  0.33577539     0.06200
C1611       C  0.37201115  0.31064826  0.32218078     0.25800
C1612       C  0.33663123  0.30713785  0.32389028    -0.11900
C1613       C  0.32800346  0.32269464  0.33914180    -0.25800
C1614       C  0.35490987  0.34002719  0.35324985     0.36600
C1615       C  0.43777455  0.33580163  0.33379662     0.06200
F1616       F  0.37997579  0.29706092  0.30677942    -0.19600
H1617       H  0.31654453  0.29363356  0.31281807     0.16000
F1618       F  0.34808742  0.35556723  0.36823925    -0.23300
H1619       H  0.41069240  0.35740436  0.36238283     0.17800
C1620       C  0.46933121  0.37137788  0.33654150     0.25800
C1621       C  0.50531524  0.37595460  0.33662704    -0.11900
C1622       C  0.51031371  0.34515522  0.33400378    -0.25900
C1623       C  0.47886810  0.31006973  0.33003926     0.36700
C1624       C  0.44296724  0.30550599  0.33004811    -0.27500
F1625       F  0.46529160  0.40157402  0.33942568    -0.19600
H1626       H  0.52908923  0.40328670  0.33949281     0.16000
F1627       F  0.48269041  0.27996136  0.32646265    -0.23400
H1628       H  0.41907933  0.27793884  0.32779283     0.17900
C1629       C  0.95697879  0.34449140  0.30905457    -0.27400
C1630       C  0.94719305  0.35321899  0.32622183     0.06200
C1631       C  0.97458243  0.36970042  0.34007264     0.25800
C1632       C  0.01054831  0.37557252  0.33710246    -0.11900
C1633       C  0.01987635  0.36453284  0.32040402    -0.25800
C1634       C  0.99305645  0.35018427  0.30607696     0.36600
C1635       C  0.90816062  0.34392297  0.32989415     0.06200
F1636       F  0.96590774  0.37776009  0.35697208    -0.19600
H1637       H  0.03039778  0.38670136  0.34843493     0.16000
F1638       F  0.00089182  0.33986494  0.28957214    -0.23300
H1639       H  0.93631635  0.33235637  0.29810839     0.17800
C1640       C  0.90050027  0.37122462  0.33656661     0.25800
C1641       C  0.86362674  0.36240149  0.33972237    -0.11900
C1642       C  0.83354109  0.32639491  0.33605190    -0.25900
C1643       C  0.84116968  0.29867391  0.32992023     0.36700
C1644       C  0.87830666  0.30751113  0.32682930    -0.27500
F1645       F  0.92850161  0.40693142  0.33914363    -0.19600
H1646       H  0.85848664  0.38435724  0.34431707     0.16000
F1647       F  0.81286261  0.26388264  0.32581349    -0.23400
H1648       H  0.88379409  0.28606017  0.32179635     0.17900
C1649       C  0.12077029  0.44944918  0.42883742    -0.27400
C1650       C  0.08199147  0.43518118  0.43083998     0.06200
C1651       C  0.05723581  0.40535036  0.41949596     0.25800
C1652       C  0.07108696  0.39106343  0.40604051    -0.11900
C1653       C  0.10993715  0.40600085  0.40357481    -0.25800
C1654       C  0.13471783  0.43509062  0.41538743     0.36600
C1655       C  0.06741160  0.45160685  0.44457966     0.06200
F1656       F  0.01954573  0.38981815  0.42148097    -0.19600
H1657       H  0.05121213  0.36853880  0.39731771     0.16000
F1658       F  0.17243646  0.45080683  0.41349956    -0.23300
H1659       H  0.14038361  0.47250745  0.43737817     0.17800
C1660       C  0.07867508  0.45596409  0.46323896     0.25800
C1661       C  0.06317366  0.46952525  0.47621630    -0.11900
C1662       C  0.03605408  0.47889227  0.47092895    -0.25900
C1663       C  0.02535269  0.47528470  0.45218600     0.36700
C1664       C  0.04112813  0.46202973  0.43916237    -0.27500
F1665       F  0.10322510  0.44533186  0.46911767    -0.19600
H1666       H  0.07154941  0.47170918  0.49060508     0.16000
F1667       F  0.99829384  0.48269241  0.44660787    -0.23400
H1668       H  0.03223985  0.45919362  0.42483705     0.17900
C1669       C  0.40222129  0.44986720  0.44561473    -0.27400
C1670       C  0.38701583  0.47331529  0.44315182     0.06200
C1671       C  0.39822541  0.50378864  0.45521252     0.25800
C1672       C  0.42491411  0.51106455  0.46908865    -0.11900
C1673       C  0.44056867  0.48790291  0.47129303    -0.25800
C1674       C  0.42850434  0.45687333  0.45957113     0.36600
C1675       C  0.35953851  0.46534297  0.42796487     0.06200
F1676       F  0.38419554  0.52707321  0.45324468    -0.19600
H1677       H  0.43364006  0.53498556  0.47805130     0.16000
F1678       F  0.44316392  0.43405899  0.46120384    -0.23300
H1679       H  0.39366185  0.42596442  0.43665543     0.17800
C1680       C  0.36811231  0.46045930  0.40966251     0.25800
C1681       C  0.34066616  0.44808617  0.39582766    -0.11900
C1682       C  0.30417829  0.44074381  0.39983782    -0.25900
C1683       C  0.29611865  0.44754613  0.41794616     0.36700
C1684       C  0.32360909  0.45971159  0.43184969    -0.27500
F1685       F  0.40295529  0.46703676  0.40523712    -0.19600
H1686       H  0.34771194  0.44332276  0.38200723     0.16000
F1687       F  0.26098539  0.43983534  0.42256711    -0.23400
H1688       H  0.31628483  0.46302125  0.44586960     0.17900
C1689       C  0.98311939  0.23804099  0.24632778    -0.27400
C1690       C  0.98074349  0.21081854  0.23400594     0.06200
C1691       C  0.00812698  0.19998159  0.23493354     0.25800
C1692       C  0.03729475  0.21637219  0.24800543    -0.11900
C1693       C  0.03967278  0.24384963  0.26033735    -0.25800
C1694       C  0.01179284  0.25418102  0.25935936     0.36600
C1695       C  0.94993723  0.19514752  0.22012027     0.06200
F1696       F  0.00649654  0.17338122  0.22336092    -0.19600
H1697       H  0.05822506  0.20785418  0.24832346     0.16000
F1698       F  0.01235448  0.28061076  0.27069323    -0.23300
H1699       H  0.96292005  0.24749390  0.24565372     0.17800
C1700       C  0.91287224  0.18364177  0.22560417     0.25800
C1701       C  0.88479540  0.17394099  0.21237349    -0.11900
C1702       C  0.89270467  0.17458259  0.19341228    -0.25900
C1703       C  0.92940923  0.18482944  0.18787629     0.36700
C1704       C  0.95777299  0.19507528  0.20114438    -0.27500
F1705       F  0.90386814  0.18226599  0.24381176    -0.19600
H1706       H  0.85685136  0.16649558  0.21695144     0.16000
F1707       F  0.93783997  0.18520057  0.16964743    -0.23400
H1708       H  0.98611375  0.20418122  0.19654912     0.17900
C1709       C  0.22728670  0.22616424  0.23402722    -0.27400
C1710       C  0.26622044  0.24155666  0.23188056     0.06200
C1711       C  0.29040837  0.27450771  0.24148669     0.25800
C1712       C  0.27595547  0.29083145  0.25346814    -0.11900
C1713       C  0.23700775  0.27486522  0.25619262    -0.25800
C1714       C  0.21272093  0.24242241  0.24609857     0.36600
C1715       C  0.28153147  0.22368834  0.21938983     0.06200
F1716       F  0.32812528  0.29116537  0.23917022    -0.19600
H1717       H  0.29548944  0.31580929  0.26090661     0.16000
F1718       F  0.17500206  0.22534369  0.24848179    -0.23300
H1719       H  0.20811251  0.20088003  0.22669054     0.17800
C1720       C  0.30796816  0.21411484  0.22578428     0.25800
C1721       C  0.32397780  0.19963324  0.21353342    -0.11900
C1722       C  0.31401340  0.19448833  0.19469931    -0.25900
C1723       C  0.28675415  0.20300341  0.18845764     0.36700
C1724       C  0.27055333  0.21717734  0.20071745    -0.27500
F1725       F  0.31841227  0.21889799  0.24387196    -0.19600
H1726       H  0.34501079  0.19347521  0.21863931     0.16000
F1727       F  0.27614281  0.19803883  0.17039088    -0.23400
H1728       H  0.25019371  0.22417588  0.19548965     0.17900
loop_ 
_geom_bond_atom_site_label_1 
_geom_bond_atom_site_label_2 
_geom_bond_distance 
_geom_bond_site_symmetry_2 
_ccdc_geom_bond_type 
O1           Mg3   2.153       .  S
O1           Mg9   2.141       .  S
O1           C36   1.234       .  S
C2           O15   1.234       .  S
C2           O39   1.267       .  A
C2           H41   1.081       .  S
Mg3          O32   2.154       .  S
Mg3          O47   2.269       .  S
Mg3          O43   2.253       .  S
Mg3          O14   2.287       .  S
O4          Mg46   2.161       .  S
O4          Mg29   2.158       .  S
O4           C25   1.238       .  S
O5           C36   1.268       .  A
O5          Mg29   2.301       .  S
C6            O8   1.275       .  A
C6           O20   1.277       .  A
C6         C1682   1.487       .  S
O7           C35   1.273       .  A
O7           Mg9   2.311       .  S
O8          Mg40   2.289       .  S
Mg9          O15   2.134       .  S
Mg9          O23   2.270       .  S
Mg9          O11   2.283       .  S
C10          O48   1.268       .  A
C10          O16   1.271       .  A
C10        C1613   1.478       .  S
O11          C18   1.274       .  A
H12          C25   1.082       .  S
C13          O27   1.234       .  S
C13          O28   1.270       .  A
C13          H38   1.078       .  S
O14          C37   1.268       .  A
O15         Mg29   2.175       .  S
O16         Mg46   2.276       .  S
C17          O30   1.272       .  A
C17          O22   1.280       .  A
C17        C1713   1.494       .  S
C18          O45   1.278       .  A
C18        C1693   1.493       .  S
Mg19         O26   2.127       .  S
Mg19         O27   2.150       .  S
Mg19         O20   2.317       .  S
Mg19         O21   2.310       .  S
Mg19         O48   2.242       .  S
O21          C25   1.273       .  A
O22         Mg29   2.344       .  S
O23          C42   1.270       .  A
O24          C44   1.277       .  A
O24         Mg40   2.324       .  S
O26         Mg40   2.156       .  S
O26          C37   1.235       .  S
O27         Mg46   2.166       .  S
O28         Mg40   2.308       .  S
Mg29         O45   2.308       .  S
O30         Mg46   2.258       .  S
H31          C36   1.078       .  S
O32         Mg40   2.150       .  S
O32          C35   1.238       .  S
H33          C35   1.082       .  S
H34          C37   1.081       .  S
O39         Mg46   2.287       .  S
C42          O47   1.270       .  A
C42        C1633   1.482       .  S
O43          C44   1.271       .  A
C44        C1653   1.490       .  S
C49        C1722   1.492       .  S
C49          C50   1.419       .  A
C49          C54   1.409       .  A
C50        C1602   1.488       .  S
C50          C51   1.409       .  A
C51          H56   1.085       .  S
C51          C52   1.404       .  A
C52        C1573   1.489       .  S
C52          C53   1.414       .  A
C53        C1553   1.486       .  S
C53          C54   1.406       .  A
C54          H55   1.084       .  S
C57        C1533   1.488       .  S
C57          C58   1.412       .  A
C57          C62   1.402       .  A
C58        C1702   1.487       .  S
C58          C59   1.406       .  A
C59          H64   1.084       .  S
C59          C60   1.410       .  A
C60        C1502   1.493       .  S
C60          C61   1.422       .  A
C61        C1513   1.491       .  S
C61          C62   1.411       .  A
C62          H63   1.085       .  S
O65         Mg67   2.148       .  S
O65         Mg73   2.151       .  S
O65         C100   1.235       .  S
C66          O79   1.234       .  S
C66         O103   1.267       .  A
C66         H105   1.081       .  S
Mg67         O96   2.156       .  S
Mg67        O111   2.305       .  S
Mg67        O107   2.244       .  S
Mg67         O78   2.295       .  S
O68        Mg110   2.160       .  S
O68         Mg93   2.164       .  S
O68          C89   1.238       .  S
O69         C100   1.269       .  A
O69         Mg93   2.300       .  S
C70          O72   1.277       .  A
C70          O84   1.276       .  A
C70        C1473   1.486       .  S
O71          C99   1.271       .  A
O71         Mg73   2.302       .  S
O72        Mg104   2.307       .  S
Mg73         O79   2.134       .  S
Mg73         O87   2.267       .  S
Mg73         O75   2.268       .  S
C74         O112   1.273       .  A
C74          O80   1.273       .  A
C74        C1413   1.492       .  S
O75          C82   1.272       .  A
H76          C89   1.082       .  S
C77          O91   1.236       .  S
C77          O92   1.271       .  A
C77         H102   1.079       .  S
O78         C101   1.269       .  A
O79         Mg93   2.172       .  S
O80        Mg110   2.291       .  S
C81          O94   1.272       .  A
C81          O86   1.278       .  A
C81        C1433   1.491       .  S
C82         O109   1.277       .  A
C82        C1453   1.492       .  S
Mg83         O90   2.150       .  S
Mg83         O91   2.148       .  S
Mg83         O84   2.294       .  S
Mg83         O85   2.309       .  S
Mg83        O112   2.289       .  S
O85          C89   1.273       .  A
O86         Mg93   2.330       .  S
O87         C106   1.271       .  A
O88         C108   1.281       .  A
O88        Mg104   2.353       .  S
O90        Mg104   2.164       .  S
O90         C101   1.235       .  S
O91        Mg110   2.155       .  S
O92        Mg104   2.309       .  S
Mg93        O109   2.309       .  S
O94        Mg110   2.254       .  S
H95         C100   1.079       .  S
O96        Mg104   2.163       .  S
O96          C99   1.237       .  S
H97          C99   1.082       .  S
H98         C101   1.081       .  S
O103       Mg110   2.289       .  S
C106        O111   1.274       .  A
C106       C1393   1.490   1_565  S
O107        C108   1.271       .  A
C108       C1593   1.490       .  S
O113       Mg115   2.150       .  S
O113       Mg121   2.151       .  S
O113        C148   1.236       .  S
C114        O127   1.234       .  S
C114        O151   1.268       .  A
C114        H153   1.081       .  S
Mg115       O144   2.168       .  S
Mg115       O159   2.309       .  S
Mg115       O155   2.252       .  S
Mg115       O126   2.293       .  S
O116       Mg158   2.160       .  S
O116       Mg141   2.169       .  S
O116        C137   1.238       .  S
O117        C148   1.271       .  A
O117       Mg141   2.305       .  S
C118        O120   1.276       .  A
C118        O132   1.275       .  A
C118       C1542   1.482       .  S
O119        C147   1.271       .  A
O119       Mg121   2.299       .  S
O120       Mg152   2.302       .  S
Mg121       O127   2.131       .  S
Mg121       O135   2.251       .  S
Mg121       O123   2.261       .  S
C122        O160   1.271       .  A
C122        O128   1.276       .  A
C122       C1302   1.491       .  S
O123        C130   1.271       .  A
H124        C137   1.082       .  S
C125        O139   1.236       .  S
C125        O140   1.272       .  A
C125        H150   1.079       .  S
O126        C149   1.268       .  A
O127       Mg141   2.162       .  S
O128       Mg158   2.313       .  S
C129        O142   1.274       .  A
C129        O134   1.280       .  A
C129       C1342   1.485       .  S
C130        O157   1.278       .  A
C130       C1353   1.495       .  S
Mg131       O138   2.145       .  S
Mg131       O139   2.145       .  S
Mg131       O132   2.300       .  S
Mg131       O133   2.307       .  S
Mg131       O160   2.269       .  S
O133        C137   1.273       .  A
O134       Mg141   2.338       .  S
O135        C154   1.269       .  A
O136        C156   1.280       .  A
O136       Mg152   2.333       .  S
O138       Mg152   2.155       .  S
O138        C149   1.234       .  S
O139       Mg158   2.158       .  S
O140       Mg152   2.310       .  S
Mg141       O157   2.330       .  S
O142       Mg158   2.260       .  S
H143        C148   1.080       .  S
O144       Mg152   2.157       .  S
O144        C147   1.237       .  S
H145        C147   1.081       .  S
H146        C149   1.081       .  S
O151       Mg158   2.293       .  S
C154        O159   1.274       .  A
C154       C1313   1.486       .  S
O155        C156   1.272       .  A
C156       C1373   1.489       .  S
C161       C1482   1.492       .  S
C161        C162   1.415       .  A
C161        C166   1.409       .  A
C162       C1382   1.484       .  S
C162        C163   1.404       .  A
C163        H168   1.084       .  S
C163        C164   1.405       .  A
C164       C1282   1.492       .  S
C164        C165   1.417       .  A
C165       C1253   1.487       .  S
C165        C166   1.409       .  A
C166        H167   1.084       .  S
O169       Mg171   2.160   1_544  S
O169       Mg177   2.142       .  S
O169        C204   1.233   1_554  S
C170        O183   1.234   1_565  S
C170        O207   1.267       .  A
C170        H209   1.080       .  S
Mg171       O200   2.148       .  S
Mg171       O215   2.288       .  S
Mg171       O211   2.255       .  S
Mg171       O182   2.294   1_565  S
O172       Mg214   2.145   1_545  S
O172       Mg197   2.141       .  S
O172        C193   1.238   1_554  S
O173        C204   1.268   1_554  A
O173       Mg197   2.301       .  S
C174        O176   1.274       .  A
C174        O188   1.274       .  A
C174       C1242   1.480       .  S
O175        C203   1.273   1_554  A
O175       Mg177   2.310   1_565  S
O176       Mg208   2.276       .  S
Mg177       O183   2.128       .  S
Mg177       O191   2.227   1_545  S
Mg177       O179   2.297       .  S
C178        O216   1.268   1_545  A
C178        O184   1.267   1_556  A
C178       C1182   1.470   1_545  S
O179        C186   1.275       .  A
H180        C193   1.084   1_554  S
C181        O195   1.235       .  S
C181        O196   1.271       .  A
C181        H206   1.082   1_556  S
O182        C205   1.268       .  A
O183       Mg197   2.164       .  S
O184       Mg214   2.258   1_545  S
C185        O198   1.270       .  A
C185        O190   1.277       .  A
C185       C1522   1.490       .  S
C186        O213   1.273       .  A
C186       C1582   1.485       .  S
Mg187       O194   2.143       .  S
Mg187       O195   2.141       .  S
Mg187       O188   2.288       .  S
Mg187       O189   2.313   1_565  S
Mg187       O216   2.260       .  S
O189        C193   1.273       .  A
O190       Mg197   2.332       .  S
O191        C210   1.266       .  A
O192        C212   1.280       .  A
O192       Mg208   2.355       .  S
O194       Mg208   2.161       .  S
O194        C205   1.234   1_565  S
O195       Mg214   2.162   1_556  S
O196       Mg208   2.314       .  S
Mg197       O213   2.271       .  S
O198       Mg214   2.250   1_545  S
H199        C204   1.081       .  S
O200       Mg208   2.144       .  S
O200        C203   1.238       .  S
H201        C203   1.083       .  S
H202        C205   1.080       .  S
O207       Mg214   2.287       .  S
C210        O215   1.270   1_554  A
C210       C1193   1.462       .  S
O211        C212   1.272       .  A
C212       C1213   1.499       .  S
O217       Mg219   2.145   1_556  S
O217       Mg225   2.151       .  S
O217        C252   1.235       .  S
C218        O231   1.234       .  S
C218        O255   1.268       .  A
C218        H257   1.081       .  S
Mg219       O248   2.159       .  S
Mg219       O263   2.296       .  S
Mg219       O259   2.250       .  S
Mg219       O230   2.288       .  S
O220       Mg262   2.154       .  S
O220       Mg245   2.155       .  S
O220        C241   1.237   1_556  S
O221        C252   1.269       .  A
O221       Mg245   2.298       .  S
C222        O224   1.277       .  A
C222        O236   1.275       .  A
C222       C1562   1.492       .  S
O223        C251   1.272       .  A
O223       Mg225   2.300       .  S
O224       Mg256   2.309       .  S
Mg225       O231   2.137       .  S
Mg225       O239   2.267       .  S
Mg225       O227   2.283       .  S
C226        O264   1.273       .  A
C226        O232   1.274   1_554  A
C226       C1093   1.494       .  S
O227        C234   1.274       .  A
H228        C241   1.082       .  S
C229        O243   1.237       .  S
C229        O244   1.272       .  A
C229        H254   1.080   1_554  S
O230        C253   1.268       .  A
O231       Mg245   2.164       .  S
O232       Mg262   2.308       .  S
C233        O246   1.273       .  A
C233        O238   1.277       .  A
C233       C1153   1.483       .  S
C234        O261   1.275       .  A
C234       C1133   1.487       .  S
Mg235       O242   2.140       .  S
Mg235       O243   2.154       .  S
Mg235       O236   2.279       .  S
Mg235       O237   2.301       .  S
Mg235       O264   2.279       .  S
O237        C241   1.271       .  A
O238       Mg245   2.327       .  S
O239        C258   1.272       .  A
O240        C260   1.282       .  A
O240       Mg256   2.357       .  S
O242       Mg256   2.164       .  S
O242        C253   1.234       .  S
O243       Mg262   2.160   1_554  S
O244       Mg256   2.310       .  S
Mg245       O261   2.290       .  S
O246       Mg262   2.258       .  S
H247        C252   1.080   1_554  S
O248       Mg256   2.154       .  S
O248        C251   1.238   1_554  S
H249        C251   1.081       .  S
H250        C253   1.081       .  S
O255       Mg262   2.296       .  S
C258        O263   1.274   1_556  A
C258       C1113   1.488       .  S
O259        C260   1.272       .  A
C260       C1273   1.495       .  S
O265       Mg267   2.163   1_456  S
O265       Mg273   2.156   1_455  S
O265        C300   1.236       .  S
C266        O279   1.233   1_655  S
C266        O303   1.268       .  A
C266        H305   1.081       .  S
Mg267       O296   2.161       .  S
Mg267       O311   2.289       .  S
Mg267       O307   2.275       .  S
Mg267       O278   2.291   1_655  S
O268       Mg310   2.162       .  S
O268       Mg293   2.166       .  S
O268        C289   1.238   1_556  S
O269        C300   1.271       .  A
O269       Mg293   2.308       .  S
C270        O272   1.276       .  A
C270        O284   1.273       .  A
C270       C1262   1.481       .  S
O271        C299   1.271       .  A
O271       Mg273   2.300       .  S
O272       Mg304   2.304       .  S
Mg273       O279   2.151   1_655  S
Mg273       O287   2.285       .  S
Mg273       O275   2.283   1_655  S
C274        O312   1.271       .  A
C274        O280   1.274   1_554  A
C274       C1042   1.494       .  S
O275        C282   1.274       .  A
H276        C289   1.082   1_556  S
C277        O291   1.236       .  S
C277        O292   1.272       .  A
C277        H302   1.081   1_554  S
O278        C301   1.268       .  A
O279       Mg293   2.171       .  S
O280       Mg310   2.310       .  S
C281        O294   1.273       .  A
C281        O286   1.283       .  A
C281       C1053   1.499       .  S
C282        O309   1.278       .  A
C282       C1082   1.495       .  S
Mg283       O290   2.148   1_455  S
Mg283       O291   2.147   1_455  S
Mg283       O284   2.285   1_455  S
Mg283       O285   2.308       .  S
Mg283       O312   2.276       .  S
O285        C289   1.273       .  A
O286       Mg293   2.364       .  S
O287        C306   1.274       .  A
O288        C308   1.282       .  A
O288       Mg304   2.348       .  S
O290       Mg304   2.161       .  S
O290        C301   1.234   1_655  S
O291       Mg310   2.163   1_654  S
O292       Mg304   2.313       .  S
Mg293       O309   2.315       .  S
O294       Mg310   2.258       .  S
H295        C300   1.082   1_554  S
O296       Mg304   2.151       .  S
O296        C299   1.237   1_554  S
H297        C299   1.081   1_554  S
H298        C301   1.081       .  S
O303       Mg310   2.293   1_655  S
C306        O311   1.273   1_556  A
C306       C1013   1.489       .  S
O307        C308   1.274       .  A
C308       C1493   1.498       .  S
O313       Mg315   2.161       .  S
O313       Mg321   2.150       .  S
O313        C348   1.235       .  S
C314        O327   1.234       .  S
C314        O351   1.266       .  A
C314        H353   1.081       .  S
Mg315       O344   2.168       .  S
Mg315       O359   2.276       .  S
Mg315       O355   2.259       .  S
Mg315       O326   2.283       .  S
O316       Mg358   2.164       .  S
O316       Mg341   2.140       .  S
O316        C337   1.238       .  S
O317        C348   1.270       .  A
O317       Mg341   2.306       .  S
C318        O320   1.278       .  A
C318        O332   1.277       .  A
C318       C1002   1.493       .  S
O319        C347   1.273       .  A
O319       Mg321   2.306       .  S
O320       Mg352   2.301       .  S
Mg321       O327   2.129       .  S
Mg321       O335   2.251       .  S
Mg321       O323   2.311       .  S
C322        O360   1.270       .  A
C322        O328   1.269       .  A
C322        C902   1.475       .  S
O323        C330   1.277       .  A
H324        C337   1.082       .  S
C325        O339   1.234       .  S
C325        O340   1.268       .  A
C325        H350   1.079       .  S
O326        C349   1.266       .  A
O327       Mg341   2.157       .  S
O328       Mg358   2.261       .  S
C329        O342   1.271       .  A
C329        O334   1.279       .  A
C329        C953   1.483       .  S
C330        O357   1.276       .  A
C330        C942   1.485       .  S
Mg331       O338   2.129       .  S
Mg331       O339   2.154       .  S
Mg331       O332   2.296       .  S
Mg331       O333   2.301       .  S
Mg331       O360   2.256       .  S
O333        C337   1.272       .  A
O334       Mg341   2.336       .  S
O335        C354   1.270       .  A
O336        C356   1.279       .  A
O336       Mg352   2.336       .  S
O338       Mg352   2.167       .  S
O338        C349   1.234       .  S
O339       Mg358   2.154       .  S
O340       Mg352   2.299       .  S
Mg341       O357   2.278       .  S
O342       Mg358   2.259       .  S
H343        C348   1.079       .  S
O344       Mg352   2.152       .  S
O344        C347   1.238       .  S
H345        C347   1.081       .  S
H346        C349   1.081       .  S
O351       Mg358   2.282       .  S
C354        O359   1.270       .  A
C354        C913   1.476       .  S
O355        C356   1.272       .  A
C356        C973   1.482       .  S
C361       C1073   1.491       .  S
C361        C362   1.416       .  A
C361        C366   1.411       .  A
C362       C1162   1.484       .  S
C362        C363   1.402       .  A
C363        H368   1.085       .  S
C363        C364   1.401       .  A
C364        C962   1.481       .  S
C364        C365   1.416       .  A
C365        C873   1.491       .  S
C365        C366   1.411       .  A
C366        H367   1.084       .  S
C369       C1062   1.498       .  S
C369        C370   1.426       .  A
C369        C374   1.415       .  A
C370       C1222   1.502       .  S
C370        C371   1.411       .  A
C371        H376   1.084       .  S
C371        C372   1.405       .  A
C372        C933   1.490       .  S
C372        C373   1.416       .  A
C373        C853   1.500       .  S
C373        C374   1.408       .  A
C374        H375   1.084       .  S
O377       Mg379   2.153       .  S
O377       Mg385   2.152       .  S
O377        C412   1.234       .  S
C378        O391   1.234       .  S
C378        O415   1.268       .  A
C378        H417   1.081       .  S
Mg379       O408   2.163       .  S
Mg379       O423   2.285       .  S
Mg379       O419   2.257       .  S
Mg379       O390   2.283       .  S
O380       Mg422   2.157       .  S
O380       Mg405   2.176       .  S
O380        C401   1.237       .  S
O381        C412   1.268       .  A
O381       Mg405   2.297       .  S
C382        O384   1.278       .  A
C382        O396   1.274       .  A
C382        C813   1.492       .  S
O383        C411   1.272       .  A
O383       Mg385   2.301       .  S
O384       Mg416   2.301       .  S
Mg385       O391   2.147       .  S
Mg385       O399   2.280       .  S
Mg385       O387   2.307       .  S
C386        O424   1.269       .  A
C386        O392   1.272       .  A
C386        C762   1.487   1_545  S
O387        C394   1.277       .  A
H388        C401   1.084       .  S
C389        O403   1.235       .  S
C389        O404   1.270       .  A
C389        H414   1.078       .  S
O390        C413   1.267       .  A
O391       Mg405   2.170       .  S
O392       Mg422   2.300       .  S
C393        O406   1.269       .  A
C393        O398   1.280       .  A
C393        C793   1.485       .  S
C394        O421   1.279       .  A
C394        C882   1.499       .  S
Mg395       O402   2.128       .  S
Mg395       O403   2.149       .  S
Mg395       O396   2.290       .  S
Mg395       O397   2.313       .  S
Mg395       O424   2.255       .  S
O397        C401   1.273       .  A
O398       Mg405   2.352       .  S
O399        C418   1.274       .  A
O400        C420   1.279       .  A
O400       Mg416   2.338       .  S
O402       Mg416   2.168       .  S
O402        C413   1.234       .  S
O403       Mg422   2.150       .  S
O404       Mg416   2.304       .  S
Mg405       O421   2.312       .  S
O406       Mg422   2.224       .  S
H407        C412   1.079       .  S
O408       Mg416   2.151       .  S
O408        C411   1.238       .  S
H409        C411   1.082       .  S
H410        C413   1.081       .  S
O415       Mg422   2.294       .  S
C418        O423   1.272       .  A
C418        C773   1.486       .  S
O419        C420   1.272       .  A
C420        C833   1.482       .  S
O425       Mg427   2.161       .  S
O425       Mg433   2.149       .  S
O425        C460   1.236       .  S
C426        O439   1.233       .  S
C426        O463   1.267       .  A
C426        H465   1.081       .  S
Mg427       O456   2.170       .  S
Mg427       O471   2.309       .  S
Mg427       O467   2.253       .  S
Mg427       O438   2.285       .  S
O428       Mg470   2.173       .  S
O428       Mg453   2.157       .  S
O428        C449   1.238       .  S
O429        C460   1.272       .  A
O429       Mg453   2.312       .  S
C430        O432   1.279       .  A
C430        O444   1.272       .  A
C430        C862   1.495       .  S
O431        C459   1.272       .  A
O431       Mg433   2.301       .  S
O432       Mg464   2.330       .  S
Mg433       O439   2.139       .  S
Mg433       O447   2.245       .  S
Mg433       O435   2.293       .  S
C434        O472   1.266       .  A
C434        O440   1.275       .  A
C434        C662   1.484       .  S
O435        C442   1.273       .  A
H436        C449   1.081       .  S
C437        O451   1.236       .  S
C437        O452   1.271       .  A
C437        H462   1.079       .  S
O438        C461   1.265       .  A
O439       Mg453   2.154       .  S
O440       Mg470   2.310       .  S
C441        O454   1.273       .  A
C441        O446   1.280       .  A
C441        C733   1.487       .  S
C442        O469   1.276       .  A
C442        C722   1.484       .  S
Mg443       O450   2.120       .  S
Mg443       O451   2.151       .  S
Mg443       O444   2.267       .  S
Mg443       O445   2.298       .  S
Mg443       O472   2.231       .  S
O445        C449   1.271       .  A
O446       Mg453   2.334       .  S
O447        C466   1.269       .  A
O448        C468   1.281       .  A
O448       Mg464   2.338       .  S
O450       Mg464   2.160       .  S
O450        C461   1.232       .  S
O451       Mg470   2.156       .  S
O452       Mg464   2.305       .  S
Mg453       O469   2.306       .  S
O454       Mg470   2.261       .  S
H455        C460   1.079       .  S
O456       Mg464   2.163       .  S
O456        C459   1.237       .  S
H457        C459   1.081       .  S
H458        C461   1.081       .  S
O463       Mg470   2.291       .  S
C466        O471   1.275       .  A
C466        C673   1.487       .  S
O467        C468   1.273       .  A
C468        C702   1.491       .  S
C473       C1142   1.489       .  S
C473        C474   1.414       .  A
C473        C478   1.407       .  A
C474       C1233   1.480       .  S
C474        C475   1.398       .  A
C475        H480   1.085       .  S
C475        C476   1.401       .  A
C476        C802   1.481       .  S
C476        C477   1.416       .  A
C477        C693   1.487       .  S
C477        C478   1.409       .  A
C478        H479   1.084       .  S
C481       C1442   1.493       .  S
C481        C482   1.421       .  A
C481        C486   1.409   1_455  A
C482       C1662   1.490       .  S
C482        C483   1.408   1_455  A
C483        H488   1.085   1_655  S
C483        C484   1.402       .  A
C484        C842   1.482       .  S
C484        C485   1.410       .  A
C485        C742   1.483       .  S
C485        C486   1.404       .  A
C486        H487   1.084       .  S
C489       C1362   1.492       .  S
C489        C490   1.418       .  A
C489        C494   1.409       .  A
C490       C1673   1.492       .  S
C490        C491   1.408       .  A
C491        H496   1.084       .  S
C491        C492   1.408       .  A
C492        C993   1.493       .  S
C492        C493   1.418       .  A
C493        C713   1.492       .  S
C493        C494   1.409       .  A
C494        H495   1.084       .  S
C497       C1462   1.489       .  S
C497        C498   1.419       .  A
C497        C502   1.409       .  A
C498       C1333   1.491       .  S
C498        C499   1.406       .  A
C499        H504   1.084       .  S
C499        C500   1.406   1_565  A
C500        C822   1.487       .  S
C500        C501   1.414       .  A
C501        C982   1.489       .  S
C501        C502   1.405   1_545  A
C502        H503   1.085       .  S
O505       Mg507   2.160   1_545  S
O505       Mg513   2.158   1_556  S
O505        C540   1.236       .  S
C506        O519   1.234       .  S
C506        O543   1.267       .  A
C506        H545   1.080       .  S
Mg507       O536   2.165   1_556  S
Mg507       O551   2.296   1_556  S
Mg507       O547   2.287       .  S
Mg507       O518   2.287       .  S
O508       Mg550   2.157   1_556  S
O508       Mg533   2.134       .  S
O508        C529   1.237       .  S
O509        C540   1.271       .  A
O509       Mg533   2.303   1_655  S
C510        O512   1.274   1_455  A
C510        O524   1.278       .  A
C510       C1033   1.496       .  S
O511        C539   1.270       .  A
O511       Mg513   2.295   1_565  S
O512       Mg544   2.273       .  S
Mg513       O519   2.124   1_655  S
Mg513       O527   2.216       .  S
Mg513       O515   2.307   1_554  S
C514        O552   1.269   1_545  A
C514        O520   1.273   1_556  A
C514       C1202   1.459       .  S
O515        C522   1.275       .  A
H516        C529   1.082       .  S
C517        O531   1.236       .  S
C517        O532   1.270       .  A
C517        H542   1.079       .  S
O518        C541   1.267       .  A
O519       Mg533   2.149   1_554  S
O520       Mg550   2.285       .  S
C521        O534   1.276       .  A
C521        O526   1.277       .  A
C521       C1102   1.495       .  S
C522        O549   1.273   1_655  A
C522       C1022   1.488       .  S
Mg523       O530   2.119   1_455  S
Mg523       O531   2.168   1_556  S
Mg523       O524   2.331   1_556  S
Mg523       O525   2.295   1_565  S
Mg523       O552   2.225       .  S
O525        C529   1.270       .  A
O526       Mg533   2.315   1_554  S
O527        C546   1.268   1_545  A
O528        C548   1.274       .  A
O528       Mg544   2.288   1_556  S
O530       Mg544   2.146   1_556  S
O530        C541   1.234       .  S
O531       Mg550   2.163   1_565  S
O532       Mg544   2.298   1_455  S
Mg533       O549   2.263       .  S
O534       Mg550   2.290       .  S
H535        C540   1.079       .  S
O536       Mg544   2.136       .  S
O536        C539   1.237       .  S
H537        C539   1.081       .  S
H538        C541   1.079       .  S
O543       Mg550   2.289       .  S
C546        O551   1.274       .  A
C546       C1173   1.470       .  S
O547        C548   1.276       .  A
C548       C1122   1.488       .  S
O553       Mg555   2.143       .  S
O553       Mg561   2.158       .  S
O553        C588   1.233       .  S
C554        O567   1.238       .  S
C554        O591   1.272       .  A
C554        H593   1.081       .  S
Mg555       O584   2.156       .  S
Mg555       O599   2.236       .  S
Mg555       O595   2.268       .  S
Mg555       O566   2.281       .  S
O556       Mg598   2.141       .  S
O556       Mg581   2.148       .  S
O556        C577   1.237       .  S
O557        C588   1.268       .  A
O557       Mg581   2.295       .  S
C558        O560   1.273       .  A
C558        O572   1.279       .  A
C558       C1322   1.487       .  S
O559        C587   1.272       .  A
O559       Mg561   2.305       .  S
O560       Mg592   2.255       .  S
Mg561       O567   2.154       .  S
Mg561       O575   2.302       .  S
Mg561       O563   2.333       .  S
C562        O600   1.272       .  A
C562        O568   1.271       .  A
C562       C1622   1.475       .  S
O563        C570   1.280       .  A
H564        C577   1.079       .  S
C565        O579   1.235       .  S
C565        O580   1.268       .  A
C565        H590   1.079       .  S
O566        C589   1.268       .  A
O567       Mg581   2.160       .  S
O568       Mg598   2.269       .  S
C569        O582   1.269       .  A
C569        O574   1.277       .  A
C569       C1402   1.484       .  S
C570        O597   1.274       .  A
C570       C1293   1.491       .  S
Mg571       O578   2.125       .  S
Mg571       O579   2.156       .  S
Mg571       O572   2.322       .  S
Mg571       O573   2.307       .  S
Mg571       O600   2.271       .  S
O573        C577   1.272       .  A
O574       Mg581   2.329       .  S
O575        C594   1.275       .  A
O576        C596   1.276       .  A
O576       Mg592   2.309       .  S
O578       Mg592   2.154       .  S
O578        C589   1.235       .  S
O579       Mg598   2.136       .  S
O580       Mg592   2.294       .  S
Mg581       O597   2.260       .  S
O582       Mg598   2.246       .  S
H583        C588   1.079       .  S
O584       Mg592   2.138       .  S
O584        C587   1.237       .  S
H585        C587   1.080       .  S
H586        C589   1.081       .  S
O591       Mg598   2.303       .  S
C594        O599   1.268       .  A
C594       C1642   1.474       .  S
O595        C596   1.271       .  A
C596       C1422   1.490       .  S
O601       Mg603   2.141       .  S
O601       Mg609   2.162       .  S
O601        C636   1.235       .  S
C602        O615   1.236       .  S
C602        O639   1.270       .  A
C602        H641   1.080       .  S
Mg603       O632   2.153       .  S
Mg603       O647   2.286       .  S
Mg603       O643   2.275       .  S
Mg603       O614   2.296       .  S
O604       Mg646   2.146       .  S
O604       Mg629   2.127       .  S
O604        C625   1.234       .  S
O605        C636   1.268       .  A
O605       Mg629   2.289       .  S
C606        O608   1.269       .  A
C606        O620   1.276       .  A
C606        C682   1.480       .  S
O607        C635   1.268       .  A
O607       Mg609   2.295       .  S
O608       Mg640   2.241       .  S
Mg609       O615   2.140       .  S
Mg609       O623   2.261       .  S
Mg609       O611   2.325       .  S
C610        O648   1.272       .  A
C610        O616   1.275       .  A
C610        C893   1.479       .  S
O611        C618   1.278       .  A
H612        C625   1.078       .  S
C613        O627   1.235       .  S
C613        O628   1.269       .  A
C613        H638   1.080       .  S
O614        C637   1.270       .  A
O615       Mg629   2.155       .  S
O616       Mg646   2.287       .  S
C617        O630   1.274       .  A
C617        O622   1.270       .  A
C617        C782   1.483       .  S
C618        O645   1.267       .  A
C618        C653   1.481       .  S
Mg619       O626   2.135       .  S
Mg619       O627   2.163       .  S
Mg619       O620   2.315       .  S
Mg619       O621   2.295       .  S
Mg619       O648   2.250       .  S
O621        C625   1.268       .  A
O622       Mg629   2.279       .  S
O623        C642   1.274       .  A
O624        C644   1.272       .  A
O624       Mg640   2.279       .  S
O626       Mg640   2.156       .  S
O626        C637   1.236       .  S
O627       Mg646   2.149       .  S
O628       Mg640   2.295       .  S
Mg629       O645   2.221       .  S
O630       Mg646   2.290       .  S
H631        C636   1.080       .  S
O632       Mg640   2.132       .  S
O632        C635   1.234       .  S
H633        C635   1.079       .  S
H634        C637   1.081       .  S
O639       Mg646   2.298       .  S
C642        O647   1.274       .  A
C642        C922   1.481       .  S
O643        C644   1.273       .  A
C644        C753   1.482       .  S
C649        H659   1.083       .  S
C649        C650   1.400       .  A
C649        C654   1.397       .  A
C650        C655   1.476       .  S
C650        C651   1.405       .  A
C651        C652   1.398       .  A
C651        F656   1.358       .  S
C652        H657   1.083       .  S
C652        C653   1.405       .  A
C653        C654   1.412       .  A
C654        F658   1.358       .  S
C655        C660   1.404       .  A
C655        C664   1.400       .  A
C660        C661   1.397   1_455  A
C660        F665   1.358       .  S
C661        H666   1.083       .  S
C661        C662   1.406       .  A
C662        C663   1.414       .  A
C663        C664   1.398   1_655  A
C663        F667   1.358       .  S
C664        H668   1.083       .  S
C669        H679   1.083       .  S
C669        C670   1.405       .  A
C669        C674   1.399       .  A
C670        C675   1.483       .  S
C670        C671   1.404       .  A
C671        C672   1.399       .  A
C671        F676   1.357       .  S
C672        H677   1.083       .  S
C672        C673   1.409       .  A
C673        C674   1.410       .  A
C674        F678   1.358       .  S
C675        C680   1.407       .  A
C675        C684   1.404       .  A
C680        C681   1.397       .  A
C680        F685   1.358       .  S
C681        H686   1.083       .  S
C681        C682   1.405       .  A
C682        C683   1.409       .  A
C683        C684   1.400       .  A
C683        F687   1.357       .  S
C684        H688   1.083       .  S
C689        H699   1.083       .  S
C689        C690   1.405       .  A
C689        C694   1.400       .  A
C690        C695   1.488       .  S
C690        C691   1.409       .  A
C691        C692   1.399       .  A
C691        F696   1.357       .  S
C692        H697   1.083       .  S
C692        C693   1.403       .  A
C693        C694   1.408       .  A
C694        F698   1.357       .  S
C695        C700   1.408       .  A
C695        C704   1.403       .  A
C700        C701   1.403       .  A
C700        F705   1.357       .  S
C701        H706   1.083       .  S
C701        C702   1.408       .  A
C702        C703   1.412       .  A
C703        C704   1.396       .  A
C703        F707   1.358       .  S
C704        H708   1.083       .  S
C709        H719   1.083       .  S
C709        C710   1.406       .  A
C709        C714   1.401       .  A
C710        C715   1.489       .  S
C710        C711   1.407       .  A
C711        C712   1.403       .  A
C711        F716   1.357       .  S
C712        H717   1.083       .  S
C712        C713   1.407       .  A
C713        C714   1.406       .  A
C714        F718   1.357       .  S
C715        C720   1.409       .  A
C715        C724   1.404       .  A
C720        C721   1.404       .  A
C720        F725   1.357       .  S
C721        H726   1.083       .  S
C721        C722   1.405       .  A
C722        C723   1.409       .  A
C723        C724   1.400       .  A
C723        F727   1.358       .  S
C724        H728   1.083       .  S
C729        H739   1.083       .  S
C729        C730   1.405       .  A
C729        C734   1.399       .  A
C730        C735   1.491       .  S
C730        C731   1.409       .  A
C731        C732   1.403       .  A
C731        F736   1.357       .  S
C732        H737   1.083       .  S
C732        C733   1.407       .  A
C733        C734   1.409       .  A
C734        F738   1.358       .  S
C735        C740   1.409       .  A
C735        C744   1.408       .  A
C740        C741   1.402       .  A
C740        F745   1.357       .  S
C741        H746   1.083       .  S
C741        C742   1.404       .  A
C742        C743   1.404       .  A
C743        C744   1.400       .  A
C743        F747   1.357   1_655  S
C744        H748   1.083       .  S
C749        H759   1.084       .  S
C749        C750   1.403       .  A
C749        C754   1.398       .  A
C750        C755   1.474       .  S
C750        C751   1.401       .  A
C751        C752   1.398       .  A
C751        F756   1.357       .  S
C752        H757   1.083       .  S
C752        C753   1.410       .  A
C753        C754   1.408       .  A
C754        F758   1.357       .  S
C755        C760   1.402       .  A
C755        C764   1.400       .  A
C760        C761   1.397       .  A
C760        F765   1.358       .  S
C761        H766   1.083       .  S
C761        C762   1.408       .  A
C762        C763   1.413       .  A
C763        C764   1.399       .  A
C763        F767   1.357       .  S
C764        H768   1.083       .  S
C769        H779   1.083       .  S
C769        C770   1.401       .  A
C769        C774   1.399   1_455  A
C770        C775   1.480       .  S
C770        C771   1.405       .  A
C771        C772   1.398   1_455  A
C771        F776   1.357       .  S
C772        H777   1.083       .  S
C772        C773   1.406       .  A
C773        C774   1.413       .  A
C774        F778   1.358       .  S
C775        C780   1.406       .  A
C775        C784   1.401       .  A
C780        C781   1.398       .  A
C780        F785   1.358       .  S
C781        H786   1.083       .  S
C781        C782   1.404       .  A
C782        C783   1.412       .  A
C783        C784   1.400       .  A
C783        F787   1.358       .  S
C784        H788   1.083       .  S
C789        H799   1.083       .  S
C789        C790   1.409   1_545  A
C789        C794   1.408       .  A
C790        C795   1.485       .  S
C790        C791   1.403       .  A
C791        C792   1.391   1_565  A
C791        F796   1.358       .  S
C792        H797   1.083   1_545  S
C792        C793   1.407       .  A
C793        C794   1.408       .  A
C794        F798   1.357       .  S
C795        C800   1.409       .  A
C795        C804   1.404       .  A
C800        C801   1.405       .  A
C800        F805   1.357       .  S
C801        H806   1.083       .  S
C801        C802   1.405       .  A
C802        C803   1.403       .  A
C803        C804   1.392       .  A
C803        F807   1.358       .  S
C804        H808   1.083       .  S
C809        H819   1.083       .  S
C809        C810   1.403       .  A
C809        C814   1.397       .  A
C810        C815   1.490       .  S
C810        C811   1.409       .  A
C811        C812   1.403       .  A
C811        F816   1.357       .  S
C812        H817   1.083       .  S
C812        C813   1.407       .  A
C813        C814   1.414       .  A
C814        F818   1.358       .  S
C815        C820   1.409       .  A
C815        C824   1.407       .  A
C820        C821   1.399       .  A
C820        F825   1.357       .  S
C821        H826   1.083       .  S
C821        C822   1.404       .  A
C822        C823   1.406       .  A
C823        C824   1.400       .  A
C823        F827   1.357   1_545  S
C824        H828   1.083       .  S
C829        H839   1.082       .  S
C829        C830   1.409       .  A
C829        C834   1.403       .  A
C830        C835   1.499       .  S
C830        C831   1.412       .  A
C831        C832   1.400       .  A
C831        F836   1.357       .  S
C832        H837   1.083       .  S
C832        C833   1.403       .  A
C833        C834   1.406       .  A
C834        F838   1.357       .  S
C835        C840   1.412       .  A
C835        C844   1.410       .  A
C840        C841   1.403       .  A
C840        F845   1.357       .  S
C841        H846   1.083       .  S
C841        C842   1.402       .  A
C842        C843   1.402       .  A
C843        C844   1.399       .  A
C843        F847   1.357   1_655  S
C844        H848   1.082       .  S
C849        H859   1.083       .  S
C849        C850   1.407       .  A
C849        C854   1.403       .  A
C850        C855   1.496       .  S
C850        C851   1.410       .  A
C851        C852   1.400       .  A
C851        F856   1.358       .  S
C852        H857   1.083       .  S
C852        C853   1.407       .  A
C853        C854   1.408       .  A
C854        F858   1.357       .  S
C855        C860   1.406       .  A
C855        C864   1.411   1_455  A
C860        C861   1.395   1_455  A
C860        F865   1.358       .  S
C861        H866   1.083       .  S
C861        C862   1.410       .  A
C862        C863   1.409       .  A
C863        C864   1.408       .  A
C863        F867   1.357       .  S
C864        H868   1.083       .  S
C869        H879   1.083       .  S
C869        C870   1.407       .  A
C869        C874   1.404       .  A
C870        C875   1.496       .  S
C870        C871   1.411       .  A
C871        C872   1.402       .  A
C871        F876   1.357       .  S
C872        H877   1.082       .  S
C872        C873   1.403       .  A
C873        C874   1.408       .  A
C874        F878   1.358       .  S
C875        C880   1.410   1_455  A
C875        C884   1.404       .  A
C880        C881   1.407       .  A
C880        F885   1.357   1_655  S
C881        H886   1.083       .  S
C881        C882   1.409       .  A
C882        C883   1.414       .  A
C883        C884   1.399   1_655  A
C883        F887   1.358       .  S
C884        H888   1.083       .  S
C889        H899   1.084       .  S
C889        C890   1.401       .  A
C889        C894   1.395       .  A
C890        C895   1.467       .  S
C890        C891   1.400       .  A
C891        C892   1.394       .  A
C891        F896   1.357       .  S
C892        H897   1.083       .  S
C892        C893   1.409       .  A
C893        C894   1.410       .  A
C894        F898   1.358       .  S
C895        C900   1.403       .  A
C895        C904   1.399       .  A
C900        C901   1.394       .  A
C900        F905   1.358       .  S
C901        H906   1.083       .  S
C901        C902   1.405       .  A
C902        C903   1.411       .  A
C903        C904   1.394       .  A
C903        F907   1.358       .  S
C904        H908   1.083       .  S
C909        H919   1.083       .  S
C909        C910   1.401       .  A
C909        C914   1.397   1_565  A
C910        C915   1.474       .  S
C910        C911   1.405       .  A
C911        C912   1.393       .  A
C911        F916   1.358       .  S
C912        H917   1.083       .  S
C912        C913   1.404   1_565  A
C913        C914   1.411       .  A
C914        F918   1.358       .  S
C915        C920   1.404       .  A
C915        C924   1.400       .  A
C920        C921   1.394       .  A
C920        F925   1.358       .  S
C921        H926   1.083       .  S
C921        C922   1.405       .  A
C922        C923   1.413       .  A
C923        C924   1.397       .  A
C923        F927   1.358       .  S
C924        H928   1.083       .  S
C929        H939   1.083       .  S
C929        C930   1.406       .  A
C929        C934   1.399       .  A
C930        C935   1.487       .  S
C930        C931   1.408       .  A
C931        C932   1.401       .  A
C931        F936   1.357       .  S
C932        H937   1.083       .  S
C932        C933   1.406       .  A
C933        C934   1.406       .  A
C934        F938   1.357       .  S
C935        C940   1.407   1_565  A
C935        C944   1.405       .  A
C940        C941   1.400       .  A
C940        F945   1.357       .  S
C941        H946   1.083       .  S
C941        C942   1.406       .  A
C942        C943   1.410   1_545  A
C943        C944   1.400       .  A
C943        F947   1.358       .  S
C944        H948   1.083       .  S
C949        H959   1.083       .  S
C949        C950   1.407       .  A
C949        C954   1.401       .  A
C950        C955   1.491       .  S
C950        C951   1.408       .  A
C951        C952   1.402       .  A
C951        F956   1.357       .  S
C952        H957   1.083       .  S
C952        C953   1.405       .  A
C953        C954   1.407       .  A
C954        F958   1.358       .  S
C955        C960   1.410       .  A
C955        C964   1.407       .  A
C960        C961   1.403       .  A
C960        F965   1.357       .  S
C961        H966   1.083       .  S
C961        C962   1.403       .  A
C962        C963   1.404       .  A
C963        C964   1.399       .  A
C963        F967   1.358       .  S
C964        H968   1.083       .  S
C969        H979   1.082       .  S
C969        C970   1.410       .  A
C969        C974   1.401       .  A
C970        C975   1.501       .  S
C970        C971   1.412       .  A
C971        C972   1.403       .  A
C971        F976   1.357       .  S
C972        H977   1.083       .  S
C972        C973   1.404       .  A
C973        C974   1.405       .  A
C974        F978   1.357       .  S
C975        C980   1.413       .  A
C975        C984   1.410       .  A
C980        C981   1.400       .  A
C980        F985   1.357       .  S
C981        H986   1.083   1_545  S
C981        C982   1.402       .  A
C982        C983   1.406       .  A
C983        C984   1.403       .  A
C983        F987   1.357       .  S
C984        H988   1.082       .  S
C989        H999   1.083       .  S
C989        C990   1.406       .  A
C989        C994   1.403       .  A
C990        C995   1.490       .  S
C990        C991   1.408       .  A
C991        C992   1.399       .  A
C991        F996   1.357       .  S
C992        H997   1.083       .  S
C992        C993   1.405       .  A
C993        C994   1.408       .  A
C994        F998   1.357       .  S
C995       C1000   1.405       .  A
C995       C1004   1.407       .  A
C1000      C1001   1.396       .  A
C1000      F1005   1.358       .  S
C1001      H1006   1.083       .  S
C1001      C1002   1.409       .  A
C1002      C1003   1.411       .  A
C1003      C1004   1.406       .  A
C1003      F1007   1.357       .  S
C1004      H1008   1.083       .  S
C1009      H1019   1.084   1_556  S
C1009      C1010   1.402       .  A
C1009      C1014   1.398       .  A
C1010      C1015   1.482       .  S
C1010      C1011   1.405       .  A
C1011      C1012   1.401       .  A
C1011      F1016   1.357       .  S
C1012      H1017   1.083       .  S
C1012      C1013   1.408       .  A
C1013      C1014   1.413       .  A
C1014      F1018   1.358   1_556  S
C1015      C1020   1.405   1_655  A
C1015      C1024   1.403       .  A
C1020      C1021   1.397       .  A
C1020      F1025   1.358       .  S
C1021      H1026   1.083       .  S
C1021      C1022   1.407   1_455  A
C1022      C1023   1.413       .  A
C1023      C1024   1.401       .  A
C1023      F1027   1.358       .  S
C1024      H1028   1.083       .  S
C1029      H1039   1.083       .  S
C1029      C1030   1.406       .  A
C1029      C1034   1.404       .  A
C1030      C1035   1.496       .  S
C1030      C1031   1.409   1_455  A
C1031      C1032   1.401       .  A
C1031      F1036   1.358       .  S
C1032      H1037   1.083       .  S
C1032      C1033   1.408   1_655  A
C1033      C1034   1.412       .  A
C1034      F1038   1.357       .  S
C1035      C1040   1.409       .  A
C1035      C1044   1.406       .  A
C1040      C1041   1.402       .  A
C1040      F1045   1.357   1_554  S
C1041      H1046   1.083   1_554  S
C1041      C1042   1.408       .  A
C1042      C1043   1.412       .  A
C1043      C1044   1.403       .  A
C1043      F1047   1.358       .  S
C1044      H1048   1.083       .  S
C1049      H1059   1.083       .  S
C1049      C1050   1.409       .  A
C1049      C1054   1.409       .  A
C1050      C1055   1.499       .  S
C1050      C1051   1.408       .  A
C1051      C1052   1.399       .  A
C1051      F1056   1.358       .  S
C1052      H1057   1.083       .  S
C1052      C1053   1.410       .  A
C1053      C1054   1.411       .  A
C1054      F1058   1.357       .  S
C1055      C1060   1.411       .  A
C1055      C1064   1.406       .  A
C1060      C1061   1.408       .  A
C1060      F1065   1.357       .  S
C1061      H1066   1.083       .  S
C1061      C1062   1.407       .  A
C1062      C1063   1.409       .  A
C1063      C1064   1.399       .  A
C1063      F1067   1.358       .  S
C1064      H1068   1.083       .  S
C1069      H1079   1.083       .  S
C1069      C1070   1.406       .  A
C1069      C1074   1.404       .  A
C1070      C1075   1.490       .  S
C1070      C1071   1.409       .  A
C1071      C1072   1.397       .  A
C1071      F1076   1.358       .  S
C1072      H1077   1.083       .  S
C1072      C1073   1.403       .  A
C1073      C1074   1.409       .  A
C1074      F1078   1.357       .  S
C1075      C1080   1.410       .  A
C1075      C1084   1.401       .  A
C1080      C1081   1.408       .  A
C1080      F1085   1.357       .  S
C1081      H1086   1.083       .  S
C1081      C1082   1.410       .  A
C1082      C1083   1.414       .  A
C1083      C1084   1.393       .  A
C1083      F1087   1.358       .  S
C1084      H1088   1.083       .  S
C1089      H1099   1.083   1_554  S
C1089      C1090   1.405       .  A
C1089      C1094   1.402       .  A
C1090      C1095   1.492       .  S
C1090      C1091   1.407       .  A
C1091      C1092   1.401       .  A
C1091      F1096   1.357       .  S
C1092      H1097   1.083       .  S
C1092      C1093   1.408       .  A
C1093      C1094   1.413       .  A
C1094      F1098   1.358   1_554  S
C1095      C1100   1.407       .  A
C1095      C1104   1.405       .  A
C1100      C1101   1.404       .  A
C1100      F1105   1.358       .  S
C1101      H1106   1.083       .  S
C1101      C1102   1.411       .  A
C1102      C1103   1.411       .  A
C1103      C1104   1.400       .  A
C1103      F1107   1.357       .  S
C1104      H1108   1.083       .  S
C1109      H1119   1.083   1_556  S
C1109      C1110   1.404       .  A
C1109      C1114   1.396       .  A
C1110      C1115   1.487       .  S
C1110      C1111   1.406       .  A
C1111      C1112   1.401       .  A
C1111      F1116   1.357       .  S
C1112      H1117   1.083       .  S
C1112      C1113   1.409       .  A
C1113      C1114   1.411       .  A
C1114      F1118   1.358   1_556  S
C1115      C1120   1.409       .  A
C1115      C1124   1.402       .  A
C1120      C1121   1.401       .  A
C1120      F1125   1.357       .  S
C1121      H1126   1.083       .  S
C1121      C1122   1.406       .  A
C1122      C1123   1.413       .  A
C1123      C1124   1.397       .  A
C1123      F1127   1.358       .  S
C1124      H1128   1.083       .  S
C1129      H1139   1.083       .  S
C1129      C1130   1.402       .  A
C1129      C1134   1.391       .  A
C1130      C1135   1.486       .  S
C1130      C1131   1.409       .  A
C1131      C1132   1.405       .  A
C1131      F1136   1.357       .  S
C1132      H1137   1.083       .  S
C1132      C1133   1.409       .  A
C1133      C1134   1.411       .  A
C1134      F1138   1.358       .  S
C1135      C1140   1.407       .  A
C1135      C1144   1.406       .  A
C1140      C1141   1.394       .  A
C1140      F1145   1.358       .  S
C1141      H1146   1.083       .  S
C1141      C1142   1.404       .  A
C1142      C1143   1.408       .  A
C1143      C1144   1.401       .  A
C1143      F1147   1.357       .  S
C1144      H1148   1.083       .  S
C1149      H1159   1.083       .  S
C1149      C1150   1.407       .  A
C1149      C1154   1.405       .  A
C1150      C1155   1.487       .  S
C1150      C1151   1.406       .  A
C1151      C1152   1.395       .  A
C1151      F1156   1.358       .  S
C1152      H1157   1.083       .  S
C1152      C1153   1.405       .  A
C1153      C1154   1.409       .  A
C1154      F1158   1.357       .  S
C1155      C1160   1.410       .  A
C1155      C1164   1.404       .  A
C1160      C1161   1.405       .  A
C1160      F1165   1.357       .  S
C1161      H1166   1.083       .  S
C1161      C1162   1.405       .  A
C1162      C1163   1.404       .  A
C1163      C1164   1.394       .  A
C1163      F1167   1.358       .  S
C1164      H1168   1.083       .  S
C1169      H1179   1.084       .  S
C1169      C1170   1.401   1_545  A
C1169      C1174   1.390       .  A
C1170      C1175   1.470       .  S
C1170      C1171   1.404   1_554  A
C1171      C1172   1.396       .  A
C1171      F1176   1.358       .  S
C1172      H1177   1.083       .  S
C1172      C1173   1.405   1_556  A
C1173      C1174   1.407   1_565  A
C1174      F1178   1.358       .  S
C1175      C1180   1.401       .  A
C1175      C1184   1.405   1_554  A
C1180      C1181   1.390       .  A
C1180      F1185   1.358       .  S
C1181      H1186   1.084       .  S
C1181      C1182   1.406   1_554  A
C1182      C1183   1.405       .  A
C1183      C1184   1.398       .  A
C1183      F1187   1.357   1_565  S
C1184      H1188   1.083       .  S
C1189      H1199   1.083       .  S
C1189      C1190   1.409   1_565  A
C1189      C1194   1.396       .  A
C1190      C1195   1.480       .  S
C1190      C1191   1.407   1_556  A
C1191      C1192   1.390       .  A
C1191      F1196   1.358       .  S
C1192      H1197   1.084       .  S
C1192      C1193   1.401   1_545  A
C1193      C1194   1.401   1_554  A
C1194      F1198   1.357       .  S
C1195      C1200   1.410       .  A
C1195      C1204   1.405   1_556  A
C1200      C1201   1.396       .  A
C1200      F1205   1.357   1_545  S
C1201      H1206   1.084   1_545  S
C1201      C1202   1.401       .  A
C1202      C1203   1.402   1_556  A
C1203      C1204   1.390       .  A
C1203      F1207   1.358       .  S
C1204      H1208   1.082       .  S
C1209      H1219   1.083       .  S
C1209      C1210   1.410       .  A
C1209      C1214   1.408       .  A
C1210      C1215   1.499       .  S
C1210      C1211   1.407       .  A
C1211      C1212   1.399       .  A
C1211      F1216   1.357       .  S
C1212      H1217   1.083       .  S
C1212      C1213   1.410       .  A
C1213      C1214   1.411       .  A
C1214      F1218   1.357       .  S
C1215      C1220   1.407       .  A
C1215      C1224   1.410       .  A
C1220      C1221   1.402       .  A
C1220      F1225   1.357       .  S
C1221      H1226   1.083       .  S
C1221      C1222   1.410       .  A
C1222      C1223   1.409       .  A
C1223      C1224   1.405       .  A
C1223      F1227   1.356       .  S
C1224      H1228   1.083       .  S
C1229      H1239   1.083       .  S
C1229      C1230   1.405       .  A
C1229      C1234   1.395       .  A
C1230      C1235   1.481       .  S
C1230      C1231   1.406       .  A
C1231      C1232   1.398       .  A
C1231      F1236   1.357       .  S
C1232      H1237   1.083       .  S
C1232      C1233   1.404       .  A
C1233      C1234   1.404       .  A
C1234      F1238   1.358       .  S
C1235      C1240   1.405       .  A
C1235      C1244   1.404       .  A
C1240      C1241   1.395       .  A
C1240      F1245   1.358       .  S
C1241      H1246   1.083       .  S
C1241      C1242   1.406       .  A
C1242      C1243   1.408       .  A
C1243      C1244   1.399       .  A
C1243      F1247   1.357       .  S
C1244      H1248   1.083       .  S
C1249      H1259   1.083       .  S
C1249      C1250   1.408       .  A
C1249      C1254   1.399       .  A
C1250      C1255   1.491       .  S
C1250      C1251   1.408       .  A
C1251      C1252   1.402       .  A
C1251      F1256   1.357       .  S
C1252      H1257   1.083       .  S
C1252      C1253   1.405       .  A
C1253      C1254   1.404       .  A
C1254      F1258   1.358       .  S
C1255      C1260   1.407       .  A
C1255      C1264   1.409       .  A
C1260      C1261   1.396       .  A
C1260      F1265   1.357       .  S
C1261      H1266   1.084       .  S
C1261      C1262   1.405       .  A
C1262      C1263   1.407       .  A
C1263      C1264   1.405       .  A
C1263      F1267   1.357       .  S
C1264      H1268   1.083       .  S
C1269      H1279   1.083       .  S
C1269      C1270   1.403       .  A
C1269      C1274   1.398       .  A
C1270      C1275   1.493       .  S
C1270      C1271   1.409       .  A
C1271      C1272   1.406       .  A
C1271      F1276   1.357       .  S
C1272      H1277   1.083       .  S
C1272      C1273   1.408       .  A
C1273      C1274   1.413       .  A
C1274      F1278   1.358       .  S
C1275      C1280   1.410       .  A
C1275      C1284   1.405       .  A
C1280      C1281   1.401       .  A
C1280      F1285   1.357       .  S
C1281      H1286   1.083       .  S
C1281      C1282   1.404       .  A
C1282      C1283   1.408       .  A
C1283      C1284   1.402       .  A
C1283      F1287   1.357       .  S
C1284      H1288   1.083       .  S
C1289      H1299   1.083       .  S
C1289      C1290   1.402       .  A
C1289      C1294   1.400       .  A
C1290      C1295   1.484       .  S
C1290      C1291   1.406       .  A
C1291      C1292   1.401       .  A
C1291      F1296   1.357       .  S
C1292      H1297   1.083       .  S
C1292      C1293   1.408       .  A
C1293      C1294   1.413       .  A
C1294      F1298   1.357       .  S
C1295      C1300   1.405       .  A
C1295      C1304   1.403       .  A
C1300      C1301   1.399   1_545  A
C1300      F1305   1.358       .  S
C1301      H1306   1.083       .  S
C1301      C1302   1.408       .  A
C1302      C1303   1.414   1_565  A
C1303      C1304   1.402       .  A
C1303      F1307   1.357       .  S
C1304      H1308   1.083       .  S
C1309      H1319   1.083       .  S
C1309      C1310   1.405       .  A
C1309      C1314   1.399       .  A
C1310      C1315   1.483       .  S
C1310      C1311   1.404       .  A
C1311      C1312   1.399       .  A
C1311      F1316   1.358       .  S
C1312      H1317   1.083       .  S
C1312      C1313   1.410       .  A
C1313      C1314   1.409       .  A
C1314      F1318   1.357       .  S
C1315      C1320   1.407       .  A
C1315      C1324   1.402       .  A
C1320      C1321   1.400       .  A
C1320      F1325   1.357       .  S
C1321      H1326   1.083       .  S
C1321      C1322   1.407       .  A
C1322      C1323   1.412       .  A
C1323      C1324   1.398       .  A
C1323      F1327   1.357       .  S
C1324      H1328   1.083       .  S
C1329      H1339   1.083       .  S
C1329      C1330   1.404       .  A
C1329      C1334   1.398       .  A
C1330      C1335   1.489       .  S
C1330      C1331   1.409       .  A
C1331      C1332   1.404       .  A
C1331      F1336   1.357       .  S
C1332      H1337   1.083       .  S
C1332      C1333   1.405       .  A
C1333      C1334   1.408       .  A
C1334      F1338   1.358   1_565  S
C1335      C1340   1.406       .  A
C1335      C1344   1.407       .  A
C1340      C1341   1.398       .  A
C1340      F1345   1.358       .  S
C1341      H1346   1.083       .  S
C1341      C1342   1.406       .  A
C1342      C1343   1.408       .  A
C1343      C1344   1.404       .  A
C1343      F1347   1.357       .  S
C1344      H1348   1.083       .  S
C1349      H1359   1.083       .  S
C1349      C1350   1.411       .  A
C1349      C1354   1.409       .  A
C1350      C1355   1.496       .  S
C1350      C1351   1.406       .  A
C1351      C1352   1.394       .  A
C1351      F1356   1.358       .  S
C1352      H1357   1.083       .  S
C1352      C1353   1.410       .  A
C1353      C1354   1.409       .  A
C1354      F1358   1.357       .  S
C1355      C1360   1.410       .  A
C1355      C1364   1.408       .  A
C1360      C1361   1.404       .  A
C1360      F1365   1.357       .  S
C1361      H1366   1.083       .  S
C1361      C1362   1.405       .  A
C1362      C1363   1.406       .  A
C1363      C1364   1.399       .  A
C1363      F1367   1.357       .  S
C1364      H1368   1.083       .  S
C1369      H1379   1.083       .  S
C1369      C1370   1.406       .  A
C1369      C1374   1.402       .  A
C1370      C1375   1.488       .  S
C1370      C1371   1.406       .  A
C1371      C1372   1.398       .  A
C1371      F1376   1.358       .  S
C1372      H1377   1.083       .  S
C1372      C1373   1.408       .  A
C1373      C1374   1.410       .  A
C1374      F1378   1.357       .  S
C1375      C1380   1.408       .  A
C1375      C1384   1.407       .  A
C1380      C1381   1.399       .  A
C1380      F1385   1.357       .  S
C1381      H1386   1.083       .  S
C1381      C1382   1.403       .  A
C1382      C1383   1.406       .  A
C1383      C1384   1.401       .  A
C1383      F1387   1.358       .  S
C1384      H1388   1.083       .  S
C1389      H1399   1.083       .  S
C1389      C1390   1.405       .  A
C1389      C1394   1.399       .  A
C1390      C1395   1.486       .  S
C1390      C1391   1.405       .  A
C1391      C1392   1.401       .  A
C1391      F1396   1.357       .  S
C1392      H1397   1.083       .  S
C1392      C1393   1.409       .  A
C1393      C1394   1.411       .  A
C1394      F1398   1.358       .  S
C1395      C1400   1.409       .  A
C1395      C1404   1.402       .  A
C1400      C1401   1.403       .  A
C1400      F1405   1.357       .  S
C1401      H1406   1.083       .  S
C1401      C1402   1.405       .  A
C1402      C1403   1.411       .  A
C1403      C1404   1.397       .  A
C1403      F1407   1.358       .  S
C1404      H1408   1.083       .  S
C1409      H1419   1.083       .  S
C1409      C1410   1.404       .  A
C1409      C1414   1.405   1_655  A
C1410      C1415   1.482       .  S
C1410      C1411   1.403       .  A
C1411      C1412   1.396   1_655  A
C1411      F1416   1.358       .  S
C1412      H1417   1.083       .  S
C1412      C1413   1.409       .  A
C1413      C1414   1.412       .  A
C1414      F1418   1.357       .  S
C1415      C1420   1.405       .  A
C1415      C1424   1.402       .  A
C1420      C1421   1.397       .  A
C1420      F1425   1.358       .  S
C1421      H1426   1.083       .  S
C1421      C1422   1.407       .  A
C1422      C1423   1.414       .  A
C1423      C1424   1.404       .  A
C1423      F1427   1.357       .  S
C1424      H1428   1.083       .  S
C1429      H1439   1.083       .  S
C1429      C1430   1.408       .  A
C1429      C1434   1.405       .  A
C1430      C1435   1.493       .  S
C1430      C1431   1.408       .  A
C1431      C1432   1.396       .  A
C1431      F1436   1.358       .  S
C1432      H1437   1.083       .  S
C1432      C1433   1.407       .  A
C1433      C1434   1.411       .  A
C1434      F1438   1.357       .  S
C1435      C1440   1.411       .  A
C1435      C1444   1.405       .  A
C1440      C1441   1.405       .  A
C1440      F1445   1.357       .  S
C1441      H1446   1.083       .  S
C1441      C1442   1.407       .  A
C1442      C1443   1.407       .  A
C1443      C1444   1.396       .  A
C1443      F1447   1.358   1_455  S
C1444      H1448   1.083       .  S
C1449      H1459   1.083       .  S
C1449      C1450   1.401       .  A
C1449      C1454   1.391       .  A
C1450      C1455   1.491       .  S
C1450      C1451   1.411       .  A
C1451      C1452   1.407       .  A
C1451      F1456   1.357       .  S
C1452      H1457   1.083       .  S
C1452      C1453   1.409       .  A
C1453      C1454   1.413       .  A
C1454      F1458   1.358       .  S
C1455      C1460   1.411       .  A
C1455      C1464   1.405       .  A
C1460      C1461   1.398       .  A
C1460      F1465   1.358       .  S
C1461      H1466   1.083       .  S
C1461      C1462   1.402       .  A
C1462      C1463   1.409       .  A
C1463      C1464   1.402       .  A
C1463      F1467   1.358       .  S
C1464      H1468   1.083       .  S
C1469      H1479   1.083       .  S
C1469      C1470   1.407   1_455  A
C1469      C1474   1.407       .  A
C1470      C1475   1.489       .  S
C1470      C1471   1.405       .  A
C1471      C1472   1.395   1_655  A
C1471      F1476   1.358       .  S
C1472      H1477   1.084       .  S
C1472      C1473   1.406       .  A
C1473      C1474   1.410       .  A
C1474      F1478   1.357       .  S
C1475      C1480   1.407       .  A
C1475      C1484   1.406       .  A
C1480      C1481   1.404       .  A
C1480      F1485   1.357       .  S
C1481      H1486   1.083       .  S
C1481      C1482   1.408       .  A
C1482      C1483   1.405       .  A
C1483      C1484   1.397       .  A
C1483      F1487   1.357       .  S
C1484      H1488   1.083       .  S
C1489      H1499   1.083       .  S
C1489      C1490   1.405       .  A
C1489      C1494   1.402       .  A
C1490      C1495   1.496       .  S
C1490      C1491   1.409       .  A
C1491      C1492   1.405       .  A
C1491      F1496   1.357       .  S
C1492      H1497   1.083       .  S
C1492      C1493   1.409       .  A
C1493      C1494   1.413       .  A
C1494      F1498   1.357       .  S
C1495      C1500   1.411       .  A
C1495      C1504   1.405       .  A
C1500      C1501   1.404       .  A
C1500      F1505   1.357       .  S
C1501      H1506   1.083       .  S
C1501      C1502   1.404       .  A
C1502      C1503   1.409       .  A
C1503      C1504   1.402       .  A
C1503      F1507   1.358       .  S
C1504      H1508   1.083       .  S
C1509      H1519   1.083       .  S
C1509      C1510   1.410       .  A
C1509      C1514   1.409       .  A
C1510      C1515   1.494       .  S
C1510      C1511   1.408       .  A
C1511      C1512   1.393       .  A
C1511      F1516   1.358       .  S
C1512      H1517   1.084       .  S
C1512      C1513   1.403       .  A
C1513      C1514   1.409       .  A
C1514      F1518   1.357       .  S
C1515      C1520   1.411       .  A
C1515      C1524   1.404       .  A
C1520      C1521   1.408       .  A
C1520      F1525   1.357       .  S
C1521      H1526   1.083       .  S
C1521      C1522   1.409       .  A
C1522      C1523   1.410       .  A
C1523      C1524   1.394       .  A
C1523      F1527   1.358       .  S
C1524      H1528   1.083       .  S
C1529      H1539   1.083       .  S
C1529      C1530   1.407       .  A
C1529      C1534   1.398       .  A
C1530      C1535   1.492       .  S
C1530      C1531   1.409       .  A
C1531      C1532   1.403       .  A
C1531      F1536   1.357       .  S
C1532      H1537   1.083       .  S
C1532      C1533   1.405       .  A
C1533      C1534   1.403       .  A
C1534      F1538   1.357       .  S
C1535      C1540   1.408       .  A
C1535      C1544   1.407   1_545  A
C1540      C1541   1.398       .  A
C1540      F1545   1.358       .  S
C1541      H1546   1.083       .  S
C1541      C1542   1.404   1_545  A
C1542      C1543   1.408       .  A
C1543      C1544   1.404       .  A
C1543      F1547   1.357       .  S
C1544      H1548   1.083       .  S
C1549      H1559   1.083       .  S
C1549      C1550   1.405       .  A
C1549      C1554   1.400       .  A
C1550      C1555   1.487       .  S
C1550      C1551   1.409       .  A
C1551      C1552   1.399       .  A
C1551      F1556   1.358       .  S
C1552      H1557   1.083       .  S
C1552      C1553   1.403       .  A
C1553      C1554   1.406       .  A
C1554      F1558   1.357       .  S
C1555      C1560   1.403       .  A
C1555      C1564   1.408       .  A
C1560      C1561   1.392       .  A
C1560      F1565   1.358       .  S
C1561      H1566   1.083       .  S
C1561      C1562   1.409       .  A
C1562      C1563   1.411       .  A
C1563      C1564   1.407       .  A
C1563      F1567   1.357       .  S
C1564      H1568   1.083       .  S
C1569      H1579   1.083       .  S
C1569      C1570   1.405       .  A
C1569      C1574   1.400       .  A
C1570      C1575   1.488       .  S
C1570      C1571   1.409       .  A
C1571      C1572   1.398       .  A
C1571      F1576   1.358       .  S
C1572      H1577   1.083       .  S
C1572      C1573   1.403       .  A
C1573      C1574   1.408       .  A
C1574      F1578   1.357       .  S
C1575      C1580   1.407       .  A
C1575      C1584   1.406       .  A
C1580      C1581   1.397       .  A
C1580      F1585   1.358       .  S
C1581      H1586   1.083       .  S
C1581      C1582   1.407       .  A
C1582      C1583   1.409       .  A
C1583      C1584   1.401       .  A
C1583      F1587   1.357       .  S
C1584      H1588   1.083       .  S
C1589      H1599   1.083   1_545  S
C1589      C1590   1.409       .  A
C1589      C1594   1.406   1_545  A
C1590      C1595   1.493       .  S
C1590      C1591   1.406       .  A
C1591      C1592   1.397       .  A
C1591      F1596   1.358       .  S
C1592      H1597   1.083       .  S
C1592      C1593   1.408   1_545  A
C1593      C1594   1.408       .  A
C1594      F1598   1.357       .  S
C1595      C1600   1.409       .  A
C1595      C1604   1.408       .  A
C1600      C1601   1.397       .  A
C1600      F1605   1.358       .  S
C1601      H1606   1.084       .  S
C1601      C1602   1.404       .  A
C1602      C1603   1.407       .  A
C1603      C1604   1.404       .  A
C1603      F1607   1.357       .  S
C1604      H1608   1.083       .  S
C1609      H1619   1.083       .  S
C1609      C1610   1.403       .  A
C1609      C1614   1.394       .  A
C1610      C1615   1.477       .  S
C1610      C1611   1.405       .  A
C1611      C1612   1.395       .  A
C1611      F1616   1.358       .  S
C1612      H1617   1.083       .  S
C1612      C1613   1.407       .  A
C1613      C1614   1.409       .  A
C1614      F1618   1.358       .  S
C1615      C1620   1.408       .  A
C1615      C1624   1.401       .  A
C1620      C1621   1.397       .  A
C1620      F1625   1.358       .  S
C1621      H1626   1.083       .  S
C1621      C1622   1.403       .  A
C1622      C1623   1.410       .  A
C1623      C1624   1.394       .  A
C1623      F1627   1.358       .  S
C1624      H1628   1.083       .  S
C1629      H1639   1.083       .  S
C1629      C1630   1.404       .  A
C1629      C1634   1.399       .  A
C1630      C1635   1.477       .  S
C1630      C1631   1.403       .  A
C1631      C1632   1.392   1_655  A
C1631      F1636   1.358       .  S
C1632      H1637   1.083       .  S
C1632      C1633   1.408       .  A
C1633      C1634   1.410   1_455  A
C1634      F1638   1.357   1_655  S
C1635      C1640   1.403       .  A
C1635      C1644   1.407       .  A
C1640      C1641   1.391       .  A
C1640      F1645   1.358       .  S
C1641      H1646   1.084       .  S
C1641      C1642   1.407       .  A
C1642      C1643   1.405       .  A
C1643      C1644   1.401       .  A
C1643      F1647   1.357       .  S
C1644      H1648   1.083       .  S
C1649      H1659   1.083       .  S
C1649      C1650   1.405       .  A
C1649      C1654   1.402       .  A
C1650      C1655   1.488       .  S
C1650      C1651   1.406       .  A
C1651      C1652   1.398       .  A
C1651      F1656   1.358       .  S
C1652      H1657   1.083       .  S
C1652      C1653   1.408       .  A
C1653      C1654   1.411       .  A
C1654      F1658   1.357       .  S
C1655      C1660   1.406       .  A
C1655      C1664   1.407       .  A
C1660      C1661   1.399       .  A
C1660      F1665   1.357       .  S
C1661      H1666   1.083       .  S
C1661      C1662   1.406       .  A
C1662      C1663   1.407       .  A
C1663      C1664   1.401       .  A
C1663      F1667   1.357   1_455  S
C1664      H1668   1.083       .  S
C1669      H1679   1.083       .  S
C1669      C1670   1.406       .  A
C1669      C1674   1.399       .  A
C1670      C1675   1.489       .  S
C1670      C1671   1.408       .  A
C1671      C1672   1.404       .  A
C1671      F1676   1.357       .  S
C1672      H1677   1.083       .  S
C1672      C1673   1.407       .  A
C1673      C1674   1.406       .  A
C1674      F1678   1.357       .  S
C1675      C1680   1.407       .  A
C1675      C1684   1.406       .  A
C1680      C1681   1.400       .  A
C1680      F1685   1.357       .  S
C1681      H1686   1.083       .  S
C1681      C1682   1.406       .  A
C1682      C1683   1.410       .  A
C1683      C1684   1.405       .  A
C1683      F1687   1.358       .  S
C1684      H1688   1.083       .  S
C1689      H1699   1.083       .  S
C1689      C1690   1.400       .  A
C1689      C1694   1.392   1_655  A
C1690      C1695   1.488       .  S
C1690      C1691   1.409   1_655  A
C1691      C1692   1.407       .  A
C1691      F1696   1.357       .  S
C1692      H1697   1.083       .  S
C1692      C1693   1.409       .  A
C1693      C1694   1.414       .  A
C1694      F1698   1.357       .  S
C1695      C1700   1.408       .  A
C1695      C1704   1.406       .  A
C1700      C1701   1.395       .  A
C1700      F1705   1.357       .  S
C1701      H1706   1.083       .  S
C1701      C1702   1.403       .  A
C1702      C1703   1.407       .  A
C1703      C1704   1.402       .  A
C1703      F1707   1.358       .  S
C1704      H1708   1.083       .  S
C1709      H1719   1.083       .  S
C1709      C1710   1.406       .  A
C1709      C1714   1.405       .  A
C1710      C1715   1.491       .  S
C1710      C1711   1.406       .  A
C1711      C1712   1.400       .  A
C1711      F1716   1.358       .  S
C1712      H1717   1.083       .  S
C1712      C1713   1.409       .  A
C1713      C1714   1.412       .  A
C1714      F1718   1.357       .  S
C1715      C1720   1.410       .  A
C1715      C1724   1.404       .  A
C1720      C1721   1.404       .  A
C1720      F1725   1.357       .  S
C1721      H1726   1.083       .  S
C1721      C1722   1.405       .  A
C1722      C1723   1.409       .  A
C1723      C1724   1.401       .  A
C1723      F1727   1.357       .  S
C1724      H1728   1.083       .  S
