geometry optimzed in LAMMPS
_audit_creation_date              2020-11-30 
_audit_creation_method            'lammps2cif' 
_symmetry_space_group_name_H-M    'P1' 
_symmetry_Int_Tables_number       1 
_symmetry_cell_setting            triclinic 
loop_ 
_symmetry_equiv_pos_as_xyz 
  x,y,z 
_cell_length_a                    43.35434921 
_cell_length_b                    43.24259422891505 
_cell_length_c                    42.518659130812615 
_cell_angle_alpha                 88.38015503796274 
_cell_angle_beta                  88.80237473448122 
_cell_angle_gamma                 91.2264650907621 
loop_ 
_atom_site_label 
_atom_site_type_symbol 
_atom_site_fract_x 
_atom_site_fract_y 
_atom_site_fract_z 
_atom_site_charge 
C1          C  0.24788130  0.16527500  0.05910439     0.42600
N2          N  0.24271594  0.19804875  0.02029899     0.01500
C3          C  0.35247328  0.27900690  0.42907585    -0.06400
H4          H  0.35262294  0.29951361  0.05912847     0.07000
C5          C  0.24493823  0.34361945  0.03933772    -0.06700
Co6        Co  0.30677214  0.21598415  0.49122869     0.74200
N7          N  0.32970231  0.27062453  0.02514468    -0.25900
Co8        Co  0.31172704  0.29816276  0.98803803     0.74100
C9          C  0.27126744  0.35131468  0.05934883     0.42700
N10         N  0.20019316  0.28149072  0.01397002     0.01100
N11         N  0.28600829  0.32357994  0.02034305     0.01200
N12         N  0.34730206  0.22768118  0.43454631    -0.46700
H13         H  0.30092588  0.16714290  0.05345227     0.07000
N14         N  0.32467817  0.24047175  0.02473272     0.01500
N15         N  0.29118329  0.32146157  0.45268070     0.01300
C16         C  0.28367521  0.35246046  0.41283258     0.42900
N17         N  0.19860792  0.25095735  0.01472734    -0.25400
C18         C  0.29537063  0.17027776  0.43485825    -0.06300
N19         N  0.22712026  0.18070940  0.04154178    -0.46500
N20         N  0.30506872  0.34196704  0.43308576    -0.46700
C21         C  0.26841694  0.16106618  0.41636151     0.42600
N22         N  0.33439353  0.24093789  0.45861636     0.01500
N23         N  0.20899707  0.24283622  0.44503490    -0.25400
N24         N  0.27279281  0.19506024  0.02263252    -0.25900
N25         N  0.20830520  0.27320214  0.44406721     0.01100
H26         H  0.18549724  0.20778774  0.41934088     0.07000
H27         H  0.23219925  0.33863846  0.41304673     0.07100
N28         N  0.33659148  0.27137421  0.45644858    -0.25900
N29         N  0.25592090  0.32607257  0.01648242    -0.25500
N30         N  0.25575070  0.19514501  0.45058394     0.01500
C31         C  0.34861955  0.24645310  0.06821679     0.42900
C32         C  0.17566252  0.24163184  0.03454799    -0.06800
N33         N  0.26145449  0.31848915  0.44743260    -0.25500
H34         H  0.22085971  0.34903060  0.04268555     0.07100
N35         N  0.33540823  0.22574701  0.04941807    -0.46700
H36         H  0.16756889  0.21791116  0.03801928     0.07000
C37         C  0.17743243  0.25899244  0.40689050     0.42700
C38         C  0.27843020  0.17488752  0.04655875    -0.06300
Co39       Co  0.22827110  0.21829022  0.48236182     0.73800
N40         N  0.17791578  0.29374701  0.03153603    -0.46500
C41         C  0.35979648  0.24923240  0.41440270     0.43000
N42         N  0.24507835  0.17788209  0.42798603    -0.46500
Co43       Co  0.23101291  0.30359272  0.98067344     0.73900
C44         C  0.25527130  0.33460940  0.42126249    -0.06800
C45         C  0.34534309  0.27680942  0.05178396    -0.06300
N46         N  0.28541677  0.19178138  0.45493316    -0.25900
N47         N  0.29592444  0.33753556  0.04600739    -0.46600
H48         H  0.35603149  0.30213055  0.41929633     0.07000
C49         C  0.19140195  0.23197726  0.42215778    -0.06800
Cl50       Cl  0.26705865  0.26096500  0.98566619    -0.49800
C51         C  0.16168904  0.26988466  0.04606869     0.42800
H52         H  0.31812176  0.16073844  0.43447343     0.07000
N53         N  0.18882850  0.28372938  0.42253956    -0.46500
C54         C  0.12872299  0.27088697  0.05753331     0.03300
C55         C  0.10759041  0.25072391  0.04335894    -0.12900
C56         C  0.07853095  0.24399736  0.05721596     0.00800
C57         C  0.06760476  0.26271378  0.08066744    -0.11400
C58         C  0.08858477  0.27983215  0.09805649     0.03300
C59         C  0.11935348  0.28469027  0.08612380    -0.10800
H60         H  0.11544525  0.23616567  0.02460872     0.08900
H61         H  0.04497599  0.25711999  0.09102383     0.06400
H62         H  0.13627161  0.29646858  0.10015413     0.06300
C63         C  0.36476608  0.23517771  0.09695171     0.03300
C64         C  0.35826506  0.20387717  0.10536144    -0.12900
C65         C  0.38087516  0.18570284  0.11842844     0.00800
C66         C  0.40552242  0.20019873  0.13288813    -0.11400
C67         C  0.41086414  0.23246207  0.12942892     0.03300
C68         C  0.39077473  0.25005480  0.11022319    -0.10800
H69         H  0.33901417  0.19170785  0.09504019     0.08900
H70         H  0.42264542  0.18552077  0.14343827     0.06400
H71         H  0.39668782  0.27385295  0.10368122     0.06300
C72         C  0.10462329  0.26025108  0.35524462     0.03300
C73         C  0.08435184  0.24462026  0.37620695    -0.12900
C74         C  0.09466890  0.23189429  0.40410455     0.00800
C75         C  0.12415188  0.23898231  0.41435493    -0.11400
C76         C  0.14504285  0.25681192  0.39532789     0.03300
C77         C  0.13546631  0.26680946  0.36475383    -0.10800
H78         H  0.06112919  0.23866342  0.36896704     0.08900
H79         H  0.13156955  0.22850855  0.43631342     0.06400
H80         H  0.15188816  0.27800054  0.34837656     0.06300
C81         C  0.41510001  0.22763553  0.34733389     0.03300
C82         C  0.40521534  0.19609853  0.34951139    -0.12900
C83         C  0.37771791  0.18706986  0.36535744     0.00800
C84         C  0.35784627  0.21052167  0.37386946    -0.11400
C85         C  0.37083062  0.23918469  0.38236069     0.03300
C86         C  0.39905450  0.24892589  0.36675634    -0.10800
H87         H  0.42012823  0.17809216  0.34166351     0.08900
H88         H  0.33578831  0.20311803  0.38437359     0.06400
H89         H  0.40930242  0.27137191  0.37124670     0.06300
N90         N  0.47295115  0.10633001  0.46103634    -0.36400
N91         N  0.03783697  0.10907002  0.01028633    -0.57000
N92         N  0.48158832  0.07963246  0.05721485    -0.36400
N93         N  0.43373452  0.07980657  0.00800867    -0.57000
C94         C  0.99025471  0.12936729  0.44708038     0.27100
C95         C  0.44681726  0.11338764  0.44586491     0.27100
C96         C  0.02183152  0.10066707  0.07957531     0.27100
C97         C  0.45572637  0.07925623  0.07552457     0.27100
C98         C  0.03336747  0.11330315  0.47953010     0.35800
C99         C  0.05754550  0.10595132  0.03399711     0.35800
C100        C  0.40951159  0.08246191  0.47949075     0.35800
C101        C  0.41858944  0.06685700  0.03337680     0.35800
C102        C  0.97715577  0.15036775  0.42666023    -0.21700
C103        C  0.45291517  0.13839705  0.42512618    -0.21700
C104        C  0.01395176  0.10622121  0.11052168    -0.21700
C105        C  0.46254866  0.09158654  0.10458604    -0.21700
C106        C  0.06423078  0.11328639  0.48662598    -0.22800
C107        C  0.08744269  0.11138855  0.02251783    -0.22800
C108        C  0.38035739  0.07057254  0.48732842    -0.22800
C109        C  0.38924821  0.05753833  0.02466229    -0.22800
C110        C  0.02165426  0.12966543  0.45398292    -0.18100
C111        C  0.41728267  0.09885368  0.45096660    -0.18100
C112        C  0.42521690  0.07563933  0.06435550    -0.18100
C113        C  0.04821741  0.11400091  0.06426089    -0.18100
H114        H  0.98840010  0.16902696  0.41298290     0.14800
H115        H  0.43754760  0.14964446  0.40907426     0.14800
H116        H  0.02800102  0.11785405  0.12752232     0.14800
H117        H  0.44679809  0.09538307  0.12406869     0.14800
H118        H  0.08338978  0.12228819  0.47230012     0.13100
H119        H  0.10822246  0.11330404  0.03591862     0.13100
H120        H  0.36081809  0.06876908  0.47199412     0.13100
H121        H  0.37057630  0.04949647  0.04032305     0.13100
H122        H  0.47560660  0.08817878  0.47724793     0.26300
H123        H  0.48307176  0.07297017  0.03392691     0.26300
C124        C  0.09010361  0.16568541  0.22849922     0.42600
N125        N  0.05681512  0.20042212  0.24147431     0.01500
C126        C  0.44960699  0.27514626  0.15352270    -0.06400
H127        H  0.05576485  0.32741800  0.13813713     0.07000
C128        C  0.06667566  0.34094375  0.26099471    -0.06700
Co129      Co  0.52138806  0.22033052  0.18751621     0.74200
N130        N  0.04149758  0.28852437  0.16750172    -0.25900
Co131      Co  0.50656843  0.30027828  0.19236766     0.74100
C132        C  0.07805309  0.35915683  0.23326826     0.42700
N133        N  0.05035463  0.27302961  0.29772912     0.01100
N134        N  0.03867844  0.33037419  0.22142947     0.01200
N135        N  0.46312519  0.22533556  0.15030423    -0.46700
H136        H  0.07716344  0.17184335  0.17612478     0.07000
N137        N  0.04875427  0.25902806  0.16739345     0.01500
N138        N  0.46993020  0.31686198  0.22169058     0.01300
C139        C  0.43196224  0.34141404  0.24343792     0.42900
N140        N  0.05426084  0.24338398  0.29358008    -0.25400
C141        C  0.47026129  0.16762861  0.19901680    -0.06300
N142        N  0.07688867  0.18059642  0.25255230    -0.46500
N143        N  0.44523843  0.33412409  0.21512897    -0.46700
C144        C  0.45587050  0.15173787  0.22673218     0.42600
N145        N  0.48399580  0.24130534  0.16549814     0.01500
N146        N  0.48441121  0.22940555  0.29517978    -0.25400
N147        N  0.05551488  0.20096757  0.21057393    -0.25900
N148        N  0.47929052  0.25912251  0.29847913     0.01100
H149        H  0.46306066  0.18790578  0.31450405     0.07000
H150        H  0.45019144  0.32934414  0.29276465     0.07100
N151        N  0.47678143  0.27072712  0.16801863    -0.25900
N152        N  0.04211850  0.32467125  0.25177269    -0.25500
N153        N  0.49022639  0.18573948  0.24133629     0.01500
C154        C  0.07982829  0.28078962  0.13192284     0.42900
C155        C  0.08052126  0.23537508  0.30755837    -0.06800
N156        N  0.47329118  0.31281120  0.25231714    -0.25500
H157        H  0.07445989  0.34192660  0.28493977     0.07100
N158        N  0.07114204  0.25364814  0.14677503    -0.46700
H159        H  0.08898645  0.21205530  0.30938305     0.07000
C160        C  0.44395333  0.23546142  0.32782783     0.42700
C161        C  0.07555139  0.17950368  0.20009485    -0.06300
Co162      Co  0.52111506  0.21314888  0.26800278     0.73800
N163        N  0.07198480  0.28541946  0.31552448    -0.46500
C164        C  0.44055388  0.24459424  0.14181183     0.43000
N165        N  0.47033639  0.16382571  0.25189184    -0.46500
Co166      Co  0.50984549  0.29139234  0.27421232     0.73900
C167        C  0.45132603  0.32748422  0.26745235    -0.06800
C168        C  0.05912063  0.30370764  0.14546699    -0.09300
N169        N  0.49076598  0.18829409  0.21034132    -0.25900
N170        N  0.05892290  0.35145191  0.20977076    -0.46600
H171        H  0.43737838  0.29665961  0.15217325     0.07000
C172        C  0.46363981  0.21287502  0.31257964    -0.06800
Cl173      Cl  0.51449438  0.25623802  0.23054700    -0.49800
C174        C  0.09268475  0.26330602  0.32279538     0.42800
H175        H  0.46648596  0.16357522  0.17440324     0.07000
N176        N  0.45509483  0.26387127  0.31771606    -0.46500
C177        C  0.26749799  0.35945315  0.09339465     0.03300
C178        C  0.24030222  0.34725452  0.10790899    -0.12900
C179        C  0.22629013  0.36302104  0.13198768     0.00800
C180        C  0.24467791  0.38079199  0.15089455    -0.11400
C181        C  0.27068170  0.39615809  0.13733634     0.03300
C182        C  0.28275531  0.38505355  0.10802972    -0.10800
H183        H  0.22608156  0.33059833  0.09591191     0.08900
H184        H  0.23360622  0.39007857  0.17161510     0.06400
H185        H  0.30071731  0.39818932  0.09522024     0.06300
C186        C  0.23870592  0.14336899  0.08559042     0.03300
C187        C  0.20678210  0.13828814  0.09103290    -0.12900
C188        C  0.19629066  0.11911591  0.11603171     0.00800
C189        C  0.21698251  0.11167041  0.13920457    -0.11400
C190        C  0.24755701  0.10650762  0.12951748     0.03300
C191        C  0.25945315  0.12459734  0.10323037    -0.10800
H192        H  0.19024810  0.14622712  0.07400285     0.08900
H193        H  0.20764480  0.09950543  0.16001253     0.06400
H194        H  0.28325310  0.12257374  0.09550773     0.06300
C195        C  0.26056221  0.12911477  0.40701794     0.03300
C196        C  0.23934839  0.11336946  0.42726216    -0.12900
C197        C  0.22168041  0.08850625  0.41741324     0.00800
C198        C  0.22717625  0.07723991  0.38701946    -0.11400
C199        C  0.25044169  0.09078070  0.36658637     0.03300
C200        C  0.26687893  0.11735312  0.37678550    -0.10800
H201        H  0.23382728  0.12293196  0.44997754     0.08900
H202        H  0.21296219  0.05816025  0.37921082     0.06400
H203        H  0.28267221  0.12986264  0.36069435     0.06300
C204        C  0.26287483  0.42654488  0.37229853     0.03300
C205        C  0.23932357  0.43379681  0.39417408    -0.12900
C206        C  0.23744603  0.41882865  0.42388442     0.00800
C207        C  0.26020071  0.39828929  0.43219889    -0.11400
C208        C  0.27907129  0.38594874  0.40876676     0.03300
C209        C  0.28190853  0.40126256  0.37915605    -0.10800
H210        H  0.22191438  0.45034553  0.38790552     0.08900
H211        H  0.25777540  0.38592075  0.45471400     0.06400
H212        H  0.29657300  0.39203755  0.36089240     0.06300
N213        N  0.10703900  0.04450882  0.03507542    -0.36400
N214        N  0.09887927  0.47109486  0.09524513    -0.57000
N215        N  0.11104984  0.42673346  0.04468576    -0.36400
N216        N  0.11436796  0.48830008  0.49329955    -0.57000
C217        C  0.08909693  0.03492726  0.06024565     0.27100
C218        C  0.09817658  0.04533454  0.51596259     0.27100
C219        C  0.10410461  0.40808372  0.07016945     0.27100
C220        C  0.10952956  0.42392222  0.51659273     0.27100
C221        C  0.09535702  0.00091081  0.10598041     0.35800
C222        C  0.10545864  0.44624841  0.11343246     0.35800
C223        C  0.11521990  0.01259585  0.47480440     0.35800
C224        C  0.12419312  0.46456918  0.47642389     0.35800
C225        C  0.06114709  0.02333233  0.05006863    -0.21700
C226        C  0.06921965  0.03179845  0.52251412    -0.21700
C227        C  0.10345054  0.37749531  0.06090490    -0.21700
C228        C  0.10166958  0.39342879  0.52399342    -0.21700
C229        C  0.10695606  0.99198633  0.13487226    -0.22800
C230        C  0.11640660  0.45587831  0.14215193    -0.22800
C231        C  0.13040256  0.00485422  0.44735933    -0.22800
C232        C  0.13900259  0.47553923  0.44881422    -0.22800
C233        C  0.09993946  0.03032795  0.09116356    -0.18100
C234        C  0.11500128  0.04217635  0.48737037    -0.18100
C235        C  0.12479628  0.43387927  0.48827214    -0.18100
C236        C  0.10996905  0.41634367  0.10161277    -0.18100
H237        H  0.04258251  0.01297291  0.06446638     0.14800
H238        H  0.05359679  0.02098619  0.50668869     0.14800
H239        H  0.10118732  0.35705075  0.07611120     0.14800
H240        H  0.10393923  0.37387082  0.50884021     0.14800
H241        H  0.11770936  0.00655668  0.15196937     0.13100
H242        H  0.12539379  0.44141503  0.16086840     0.13100
H243        H  0.14248983  0.01987998  0.43033586     0.13100
H244        H  0.15027059  0.46268831  0.43067493     0.13100
H245        H  0.12987871  0.05228427  0.03489045     0.26300
H246        H  0.11682869  0.45020922  0.04522374     0.26300
C247        C  0.08973584  0.39111028  0.23750349     0.03300
C248        C  0.07138143  0.40819332  0.25767847    -0.12900
C249        C  0.08486788  0.42971689  0.27686413     0.00800
C250        C  0.11503231  0.44041461  0.27021896    -0.11400
C251        C  0.13328643  0.42677787  0.24673904     0.03300
C252        C  0.12077060  0.40093131  0.23106306    -0.10800
H253        H  0.04805587  0.39997153  0.26356846     0.08900
H254        H  0.12493827  0.45770585  0.28520395     0.06400
H255        H  0.13547546  0.38748533  0.21603440     0.06300
C256        C  0.39377737  0.08576568  0.22742697     0.03300
C257        C  0.41019726  0.06353199  0.24420533    -0.12900
C258        C  0.43932262  0.07027175  0.25562254     0.00800
C259        C  0.45507750  0.09718699  0.24465215    -0.11400
C260        C  0.43982217  0.12058315  0.22823490     0.03300
C261        C  0.40857385  0.11489442  0.21949935    -0.10800
H262        H  0.39803708  0.04274565  0.25291073     0.08900
H263        H  0.47788271  0.10210614  0.25328245     0.06400
H264        H  0.39557479  0.13324063  0.20857482     0.06300
C265        C  0.09983933  0.13275410  0.23446704     0.03300
C266        C  0.12531665  0.11843575  0.21952837    -0.12900
C267        C  0.13329252  0.08770837  0.22887830     0.00800
C268        C  0.11427100  0.07118296  0.25082944    -0.11400
C269        C  0.09190493  0.08602092  0.26852990     0.03300
C270        C  0.08512842  0.11668628  0.26019399    -0.10800
H271        H  0.13992909  0.13167065  0.20290933     0.08900
H272        H  0.11978710  0.04749109  0.25712928     0.06400
H273        H  0.06872439  0.12856287  0.27477227     0.06300
C274        C  0.36920925  0.40430657  0.25600119     0.03300
C275        C  0.36084456  0.39354961  0.28671829    -0.12900
C276        C  0.37700656  0.37035285  0.30142744     0.00800
C277        C  0.39113122  0.34905836  0.28262557    -0.11400
C278        C  0.40246066  0.35793761  0.25222350     0.03300
C279        C  0.39121486  0.38641546  0.23852669    -0.10800
H280        H  0.34590261  0.40649897  0.30184268     0.08900
H281        H  0.39922529  0.32849395  0.29463836     0.06400
H282        H  0.40112401  0.39561453  0.21655500     0.06300
N283        N  0.44101759  0.47705803  0.41256092    -0.36400
N284        N  0.49957991  0.04080242  0.38206863    -0.57000
N285        N  0.05743189  0.48977246  0.39254113    -0.36400
N286        N  0.48556422  0.41827065  0.40249065    -0.57000
C287        C  0.42697405  0.00357598  0.39735845     0.27100
C288        C  0.42141848  0.45252481  0.40977533     0.27100
C289        C  0.05676283  0.01203765  0.40755534     0.27100
C290        C  0.05219290  0.46480134  0.41196840     0.27100
C291        C  0.47372796  0.03527259  0.39923532     0.35800
C292        C  0.01746137  0.04671799  0.40281203     0.35800
C293        C  0.46088615  0.41584875  0.42241602     0.35800
C294        C  0.00922536  0.42639443  0.41851396     0.35800
C295        C  0.39727440  0.99664564  0.38811109    -0.21700
C296        C  0.39460997  0.46238505  0.39553369    -0.21700
C297        C  0.05569447  0.00475685  0.43921037    -0.21700
C298        C  0.05841905  0.47283993  0.44244012    -0.21700
C299        C  0.47908883  0.03860350  0.43078426    -0.22800
C300        C  0.00485805  0.04728552  0.43329830    -0.22800
C301        C  0.47001390  0.42136411  0.45266110    -0.22800
C302        C  0.00263987  0.42816969  0.45060214    -0.22800
C303        C  0.44572800  0.02819393  0.38519411    -0.18100
C304        C  0.43092045  0.42129308  0.41179726    -0.18100
C305        C  0.03583843  0.43839426  0.40189587    -0.18100
C306        C  0.04853537  0.04070752  0.39426375    -0.18100
H307        H  0.38265771  0.01116490  0.37391718     0.14800
H308        H  0.37533213  0.44809778  0.38841503     0.14800
H309        H  0.05758357  0.02118842  0.45740506     0.14800
H310        H  0.05856215  0.45844756  0.46349059     0.14800
H311        H  0.46263310  0.03552511  0.45016584     0.13100
H312        H  0.01687544  0.05172361  0.45476388     0.13100
H313        H  0.45520193  0.42316216  0.47330455     0.13100
H314        H  0.01789851  0.43253756  0.46959501     0.13100
H315        H  0.46388220  0.47635174  0.41970752     0.26300
H316        H  0.05255221  0.49181454  0.36881137     0.26300
C317        C  0.16609497  0.43785720  0.24270211     0.42600
N318        N  0.20287249  0.47077747  0.25267681     0.01500
C319        C  0.28713470  0.06271381  0.15161727    -0.06400
H320        H  0.32521096  0.44122621  0.15716266     0.07000
C321        C  0.34855612  0.45805268  0.27310327    -0.06700
Co322      Co  0.22306384  0.00019582  0.19277824     0.74200
N323        N  0.28907564  0.47036172  0.17525184    -0.25900
Co324      Co  0.30401452  0.00355365  0.19521946     0.74100
C325        C  0.35946407  0.43725433  0.24862651     0.42700
N326        N  0.27933884  0.47763049  0.30646390     0.01100
N327        N  0.33366767  0.47522675  0.22803406     0.01200
N328        N  0.23627576  0.05351373  0.14833687    -0.46700
H329        H  0.17540212  0.44426831  0.18930642     0.07000
N330        N  0.25866792  0.46849108  0.17418217     0.01500
N331        N  0.32716115  0.04093825  0.21664237     0.01300
C332        C  0.35994239  0.07871862  0.22556899     0.42900
N333        N  0.24900919  0.47591696  0.30404795    -0.25400
C334        C  0.17629701  0.05584019  0.19893503    -0.06300
N335        N  0.18045061  0.45321532  0.26571831    -0.46500
N336        N  0.34886117  0.05959753  0.20337680    -0.46700
C337        C  0.16468393  0.07472843  0.22486259     0.42600
N338        N  0.24917477  0.03140325  0.16480695     0.01500
N339        N  0.24182542  0.04661185  0.29539375    -0.25400
N340        N  0.20423794  0.46861005  0.22178276    -0.25900
N341        N  0.27209398  0.04806019  0.29814497     0.01100
H342        H  0.20437749  0.06609101  0.32150204     0.07000
H343        H  0.34686132  0.07589099  0.27839672     0.07100
N344        N  0.27931436  0.03542475  0.16686972    -0.25900
N345        N  0.33197375  0.47948935  0.25863452    -0.25500
N346        N  0.19760525  0.04137671  0.24220026     0.01500
C347        C  0.27415714  0.42876809  0.14832040     0.42900
C348        C  0.23757360  0.45463449  0.32478121    -0.06800
N349        N  0.32379643  0.04532317  0.24712383    -0.25500
H350        H  0.35108225  0.45639422  0.29833541     0.07100
N351        N  0.24910851  0.44438272  0.15838958    -0.46700
H352        H  0.21331070  0.44966627  0.32938394     0.07000
C353        C  0.25419403  0.07886204  0.33374367     0.42700
C354        C  0.18210728  0.44818109  0.21324629    -0.06300
Co355      Co  0.21912089  0.01052377  0.27307408     0.73800
N356        N  0.28941373  0.45850511  0.32888219    -0.46500
C357        C  0.25801258  0.07481846  0.13917757     0.43000
N358        N  0.17893305  0.06354431  0.25072757    -0.46500
Co359      Co  0.30441039  0.51260015  0.28025920     0.73900
C360        C  0.34247119  0.06905602  0.25458705    -0.06800
C361        C  0.30095623  0.44612543  0.15982233    -0.06300
N362        N  0.19696930  0.03644784  0.21176298    -0.25900
N363        N  0.34918066  0.44969917  0.22100697    -0.46600
H364        H  0.30969889  0.07376255  0.15121157     0.07000
C365        C  0.22885071  0.06549512  0.31610183    -0.06800
Cl366      Cl  0.26131077  0.00684338  0.23455533    -0.49800
C367        C  0.26427245  0.44283929  0.34116174     0.42800
H368        H  0.16910587  0.05557343  0.17480496     0.07000
N369        N  0.28034427  0.06642698  0.32147596    -0.46500
C370        C  0.37879054  0.37241886  0.36046708    -0.20100
C371        C  0.39277136  0.37892794  0.33079501    -0.06700
C372        C  0.42059931  0.39700057  0.32901763     0.14200
C373        C  0.43361198  0.40733677  0.35647744    -0.20200
C374        C  0.41941134  0.40196998  0.38591387    -0.06700
C375        C  0.39160779  0.38422477  0.38808370     0.14100
C376        C  0.37436357  0.37884296  0.41887386    -0.23500
H377        H  0.35715880  0.35936128  0.36196118     0.15400
H378        H  0.45386762  0.42221623  0.35464541     0.15500
C379        C  0.43615575  0.40782030  0.29841792    -0.23500
H380        H  0.37186108  0.35366206  0.42403608     0.05700
H381        H  0.35112712  0.38900180  0.41731753     0.08900
H382        H  0.38635005  0.38933089  0.43888180     0.08900
H383        H  0.42039212  0.42223279  0.28444302     0.08900
H384        H  0.44405472  0.38791019  0.28507571     0.08900
H385        H  0.45704707  0.42244013  0.30211632     0.05700
C386        C  0.04135537  0.06821249  0.34130324    -0.20100
C387        C  0.06047523  0.05044600  0.36117735    -0.06700
C388        C  0.09045053  0.04359697  0.34860821     0.14200
C389        C  0.09948546  0.05488767  0.31833319    -0.20200
C390        C  0.07951312  0.07138097  0.29875093    -0.06700
C391        C  0.04934023  0.07611284  0.31003881     0.14100
C392        C  0.02409925  0.08771485  0.28942231    -0.23500
H393        H  0.01936224  0.07630379  0.34940257     0.15400
H394        H  0.12303474  0.05137184  0.31038545     0.15500
C395        C  0.11494160  0.02582322  0.36560301    -0.23500
H396        H  0.00510479  0.07022950  0.29035803     0.05700
H397        H  0.03102271  0.09040947  0.26427031     0.08900
H398        H  0.01560363  0.11002971  0.29814149     0.08900
H399        H  0.11984341  0.00431590  0.35290300     0.08900
H400        H  0.10911795  0.01946261  0.39003035     0.08900
H401        H  0.13651738  0.04012795  0.36614408     0.05700
C402        C  0.45056284  0.07889570  0.31082180    -0.20100
C403        C  0.44623989  0.05731704  0.28725863    -0.06700
C404        C  0.44193026  0.02568593  0.29600436     0.14200
C405        C  0.43960950  0.01707002  0.32807920    -0.20200
C406        C  0.44291741  0.03906029  0.35171264    -0.06700
C407        C  0.44938501  0.07032839  0.34250685     0.14100
C408        C  0.45541058  0.09569495  0.36516965    -0.23500
H409        H  0.45347558  0.10331067  0.30468262     0.15400
H410        H  0.43633285  0.99280695  0.33459606     0.15500
C411        C  0.44048522  0.00056624  0.27219036    -0.23500
H412        H  0.44061301  0.11564029  0.35980567     0.05700
H413        H  0.47980189  0.10386999  0.36289531     0.08900
H414        H  0.45053464  0.08810450  0.38968597     0.08900
H415        H  0.44421144  0.00967451  0.24773162     0.08900
H416        H  0.41768424  0.98837205  0.27400775     0.08900
H417        H  0.45885737  0.98366349  0.27690043     0.05700
C418        C  0.04311193  0.44669582  0.31291294    -0.20100
C419        C  0.07117284  0.43176669  0.30872871    -0.06700
C420        C  0.08328186  0.41417804  0.33397007     0.14200
C421        C  0.06786264  0.41338459  0.36316547    -0.20200
C422        C  0.04165069  0.43090843  0.36846106    -0.06700
C423        C  0.02851274  0.44722023  0.34266969     0.14100
C424        C  0.00146894  0.46817951  0.34607738    -0.23500
H425        H  0.03325156  0.45910143  0.29314027     0.15400
H426        H  0.07746717  0.40056907  0.38272113     0.15500
C427        C  0.11255605  0.39620181  0.33035567    -0.23500
H428        H  0.00818178  0.49182634  0.33766914     0.05700
H429        H  0.99265275  0.46962440  0.37056544     0.08900
H430        H  0.98286423  0.46027640  0.33085565     0.08900
H431        H  0.13233363  0.41228534  0.32483192     0.08900
H432        H  0.11019019  0.37945891  0.31121050     0.08900
H433        H  0.11799279  0.38299835  0.35225788     0.05700
C434        C  0.17962401  0.42432468  0.49188702    -0.20100
C435        C  0.15191442  0.41649356  0.47712457    -0.06700
C436        C  0.15320146  0.40507801  0.44639093     0.14200
C437        C  0.18155127  0.40568426  0.42977151    -0.20200
C438        C  0.20848025  0.41786669  0.44308993    -0.06700
C439        C  0.20775189  0.42617951  0.47496164     0.14100
C440        C  0.23583494  0.43977467  0.49025541    -0.23500
H441        H  0.17846597  0.43341476  0.51535446     0.15400
H442        H  0.18233610  0.39801010  0.40571011     0.15500
C443        C  0.12448243  0.39637069  0.42927218    -0.23500
H444        H  0.23036720  0.44809510  0.51410950     0.05700
H445        H  0.24500104  0.45987226  0.47586021     0.08900
H446        H  0.25396746  0.42225407  0.49268320     0.08900
H447        H  0.12645781  0.37260620  0.42033429     0.08900
H448        H  0.12183141  0.41290216  0.40912564     0.08900
H449        H  0.10349593  0.39699204  0.44463446     0.05700
C450        C  0.17028190  0.05860886  0.48674990    -0.20100
C451        C  0.14053557  0.06347588  0.47513965    -0.06700
C452        C  0.13815239  0.07808702  0.44495580     0.14200
C453        C  0.16487011  0.08554918  0.42676477    -0.20200
C454        C  0.19431843  0.07868030  0.43751745    -0.06700
C455        C  0.19709183  0.06610509  0.46845174     0.14100
C456        C  0.22822173  0.05883705  0.48158138    -0.23500
H457        H  0.17253897  0.04621866  0.50905483     0.15400
H458        H  0.16260992  0.09617486  0.40353093     0.15500
C459        C  0.10771370  0.08338000  0.42975052    -0.23500
H460        H  0.22612374  0.04718643  0.50515733     0.05700
H461        H  0.24212074  0.08039313  0.48416966     0.08900
H462        H  0.24064194  0.04322451  0.46562017     0.08900
H463        H  0.08781739  0.07457803  0.44437338     0.08900
H464        H  0.10706741  0.07155658  0.40711716     0.08900
H465        H  0.10529188  0.10851103  0.42475509     0.05700
C466        C  0.15431266  0.04810915  0.08721555    -0.20100
C467        C  0.12552309  0.05033272  0.10216443    -0.06700
C468        C  0.12153543  0.07223652  0.12581914     0.14200
C469        C  0.14527119  0.09428481  0.13053077    -0.20200
C470        C  0.17169352  0.09566711  0.11086916    -0.06700
C471        C  0.17668245  0.07151194  0.08950535     0.14100
C472        C  0.20516261  0.07008525  0.06856381    -0.23500
H473        H  0.15831056  0.02911876  0.07161117     0.15400
H474        H  0.14257536  0.11136357  0.14846413     0.15500
C475        C  0.09181389  0.07354539  0.14467246    -0.23500
H476        H  0.20480306  0.04928062  0.05382908     0.05700
H477        H  0.22613588  0.06899478  0.08284849     0.08900
H478        H  0.20661688  0.09055008  0.05224657     0.08900
H479        H  0.08802014  0.05182341  0.15880795     0.08900
H480        H  0.07220109  0.07660803  0.12861658     0.08900
H481        H  0.09208557  0.09311181  0.16104682     0.05700
C482        C  0.16537575  0.41436825  0.09791082    -0.20100
C483        C  0.13870431  0.40218260  0.11261758    -0.06700
C484        C  0.14048606  0.37751135  0.13471017     0.14200
C485        C  0.16941425  0.36478187  0.14088698    -0.20200
C486        C  0.19607736  0.37629183  0.12485388    -0.06700
C487        C  0.19380341  0.40165542  0.10283607     0.14100
C488        C  0.22024749  0.41603794  0.08341481    -0.23500
H489        H  0.16350985  0.43379924  0.08137078     0.15400
H490        H  0.17121738  0.34580176  0.15790088     0.15500
C491        C  0.11198959  0.36474818  0.15104208    -0.23500
H492        H  0.21276897  0.43506503  0.06741207     0.05700
H493        H  0.23049623  0.39890547  0.06790783     0.08900
H494        H  0.23746551  0.42678538  0.09848954     0.08900
H495        H  0.11691886  0.34476219  0.16700858     0.08900
H496        H  0.09599824  0.35718838  0.13283176     0.08900
H497        H  0.10099712  0.38305679  0.16487207     0.05700
C498        C  0.37844380  0.16473809  0.41906006    -0.20100
C499        C  0.37752255  0.15894311  0.38682910    -0.06700
C500        C  0.38033841  0.12799669  0.37742644     0.14200
C501        C  0.38835656  0.10508031  0.40029666    -0.20200
C502        C  0.39196612  0.11266274  0.43218604    -0.06700
C503        C  0.38223197  0.14172780  0.44186160     0.14100
C504        C  0.38226389  0.15069704  0.47590824    -0.23500
H505        H  0.38051252  0.18799627  0.42656628     0.15400
H506        H  0.39450606  0.08222093  0.39288753     0.15500
C507        C  0.37651239  0.11955366  0.34361042    -0.23500
H508        H  0.37329680  0.17432152  0.47904081     0.05700
H509        H  0.40609112  0.15042204  0.48482491     0.08900
H510        H  0.36717245  0.13443137  0.49017680     0.08900
H511        H  0.39387017  0.13211187  0.32826437     0.08900
H512        H  0.35304331  0.12570768  0.33594624     0.08900
H513        H  0.37937979  0.09435473  0.34044803     0.05700
C514        C  0.04532812  0.18151840  0.45934186    -0.20100
C515        C  0.04100864  0.15544637  0.44077636    -0.06700
C516        C  0.05428374  0.15456325  0.41047494     0.14200
C517        C  0.07270093  0.17957755  0.39961833    -0.20200
C518        C  0.07697482  0.20570651  0.41810808    -0.06700
C519        C  0.06304898  0.20696746  0.44808917     0.14100
C520        C  0.06602734  0.23547633  0.46738548    -0.23500
H521        H  0.03438622  0.18196742  0.48245535     0.15400
H522        H  0.08327630  0.17916364  0.37629387     0.15500
C523        C  0.04843669  0.12768271  0.38957739    -0.23500
H524        H  0.05304367  0.23276821  0.48991960     0.05700
H525        H  0.05684614  0.25568432  0.45419679     0.08900
H526        H  0.09055419  0.24011777  0.47282949     0.08900
H527        H  0.02357710  0.12609135  0.38420825     0.08900
H528        H  0.05507734  0.10591705  0.40165875     0.08900
H529        H  0.06168647  0.13014816  0.36697507     0.05700
C530        C  0.41038701  0.12923108  0.06010407    -0.20100
C531        C  0.40509140  0.10063332  0.07571991    -0.06700
C532        C  0.38849194  0.09938237  0.10471290     0.14200
C533        C  0.37934254  0.12730871  0.11825384    -0.20200
C534        C  0.38680447  0.15600529  0.10320351    -0.06700
C535        C  0.40197785  0.15674526  0.07337978     0.14100
C536        C  0.41130446  0.18653563  0.05589085    -0.23500
H537        H  0.42429808  0.13028162  0.03864857     0.15400
H538        H  0.36758479  0.12674255  0.14101670     0.15500
C539        C  0.38183122  0.06922230  0.12225579    -0.23500
H540        H  0.42452532  0.18236974  0.03380894     0.05700
H541        H  0.42624657  0.20105383  0.07064349     0.08900
H542        H  0.39054930  0.19930775  0.04911399     0.08900
H543        H  0.39070680  0.04915582  0.10941988     0.08900
H544        H  0.35656118  0.06579322  0.12542925     0.08900
H545        H  0.39263135  0.06959242  0.14569549     0.05700
C546        C  0.03137007  0.16843304  0.05841551    -0.20100
C547        C  0.05367046  0.14767371  0.06941613    -0.06700
C548        C  0.08248190  0.15960340  0.07842579     0.14200
C549        C  0.08942678  0.19093677  0.07379428    -0.20200
C550        C  0.06841795  0.21116222  0.05999936    -0.06700
C551        C  0.03826518  0.20016176  0.05394850     0.14100
C552        C  0.01323738  0.22085324  0.04221857    -0.23500
H553        H  0.00898745  0.15953820  0.05157424     0.15400
H554        H  0.11180787  0.19968443  0.08088372     0.15500
C555        C  0.10660457  0.13991259  0.09254588    -0.23500
H556        H  0.00457995  0.21233029  0.01956322     0.05700
H557        H  0.02123039  0.24519886  0.03836417     0.08900
H558        H  0.99394513  0.22052345  0.05977827     0.08900
H559        H  0.12845785  0.14241368  0.07851689     0.08900
H560        H  0.09913600  0.11544956  0.09291906     0.08900
H561        H  0.11072980  0.14722252  0.11694712     0.05700
C562        C  0.25230247  0.16213185  0.56022802     0.42600
N563        N  0.24746602  0.19299463  0.51981663     0.01500
C564        C  0.35180302  0.27777515  0.92745249    -0.06400
H565        H  0.34852921  0.30193947  0.56166594     0.07000
C566        C  0.23957163  0.33877771  0.53809872    -0.06700
Co567      Co  0.30215352  0.21774625  0.98955332     0.74200
N568        N  0.32959591  0.27081468  0.52726953    -0.25900
Co569      Co  0.31107364  0.29698956  0.48978817     0.74100
C570        C  0.26414331  0.34815427  0.55942300     0.42700
N571        N  0.20095847  0.27357132  0.51295776     0.01100
N572        N  0.28276117  0.32091467  0.52159677     0.01200
N573        N  0.34185307  0.22690514  0.93220306    -0.46700
H574        H  0.30547599  0.16663000  0.55705208     0.07000
N575        N  0.32691503  0.24038029  0.52701798     0.01500
N576        N  0.29210859  0.32385321  0.95139503     0.01300
C577        C  0.28518504  0.35487351  0.91123051     0.42900
N578        N  0.20089840  0.24303456  0.51368381    -0.25400
C579        C  0.28728223  0.17193016  0.93489408    -0.06300
N580        N  0.23176286  0.17589760  0.54114437    -0.46500
N581        N  0.30649618  0.34314128  0.93091605    -0.46700
C582        C  0.25905031  0.16223865  0.91888948     0.42600
N583        N  0.32998547  0.24103964  0.95620324     0.01500
N584        N  0.20605167  0.25027907  0.94566103    -0.25400
N585        N  0.27752701  0.19165583  0.52350916    -0.25900
N586        N  0.20697433  0.28069225  0.94499618     0.01100
H587        H  0.18216009  0.21694172  0.91810258     0.07000
H588        H  0.23305557  0.34417140  0.91338497     0.07100
N589        N  0.33482963  0.27121875  0.95436157    -0.25900
N590        N  0.25281518  0.32157649  0.51627259    -0.25500
N591        N  0.24889136  0.19848992  0.95134322     0.01500
C592        C  0.34853924  0.24901172  0.57126179     0.42900
C593        C  0.17845666  0.23255526  0.53356282    -0.06800
N594        N  0.26210388  0.32283419  0.94726673    -0.25500
H595        H  0.21511910  0.34314309  0.53966203     0.07100
N596        N  0.33783416  0.22691818  0.55234845    -0.46700
H597        H  0.17159865  0.20849388  0.53720639     0.07000
C598        C  0.17688940  0.26875672  0.90632301     0.42700
C599        C  0.28299028  0.17260895  0.54848637    -0.06300
Co600      Co  0.22393870  0.22431946  0.98311886     0.73800
N601        N  0.17838033  0.28472185  0.53081345    -0.46500
C602        C  0.35625109  0.24761863  0.91252929     0.43000
N603        N  0.23649038  0.17980456  0.93085473    -0.46500
Co604      Co  0.23063107  0.29745344  0.48004395     0.73900
C605        C  0.25605445  0.33902663  0.92107046    -0.06800
C606        C  0.34357472  0.27864631  0.55433617    -0.06300
N607        N  0.27868131  0.19452760  0.95430439    -0.25900
N608        N  0.29044141  0.33587383  0.54756029    -0.46600
H609        H  0.35808498  0.30058115  0.91824054     0.07000
C610        C  0.18896960  0.24076540  0.92175584    -0.06800
Cl611      Cl  0.26906278  0.25719045  0.48615512    -0.49800
C612        C  0.16334993  0.26012103  0.54520818     0.42800
H613        H  0.30979220  0.16168910  0.93407495     0.07000
N614        N  0.18901827  0.29256848  0.92280576    -0.46500
C615        C  0.13055802  0.26013458  0.55666093     0.03300
C616        C  0.10957944  0.23951621  0.54283843    -0.12900
C617        C  0.07955060  0.23496935  0.55520403     0.00800
C618        C  0.06901638  0.25430473  0.57840088    -0.11400
C619        C  0.08991769  0.27200449  0.59530131     0.03300
C620        C  0.12087641  0.27560815  0.58405320    -0.10800
H621        H  0.11746499  0.22442821  0.52454738     0.08900
H622        H  0.04602422  0.24990756  0.58838955     0.06400
H623        H  0.13763009  0.28807000  0.59770071     0.06300
C624        C  0.36283999  0.23984030  0.60163863     0.03300
C625        C  0.35486627  0.20942241  0.61177007    -0.12900
C626        C  0.37771705  0.19030913  0.62269930     0.00800
C627        C  0.40345248  0.20367999  0.63622270    -0.11400
C628        C  0.40983151  0.23571066  0.63256050     0.03300
C629        C  0.38998585  0.25387891  0.61358243    -0.10800
H630        H  0.33447124  0.19813332  0.60263156     0.08900
H631        H  0.42049512  0.18826559  0.64578310     0.06400
H632        H  0.39700325  0.27710666  0.60591350     0.06300
C633        C  0.10427395  0.26687644  0.85476964     0.03300
C634        C  0.08346042  0.25475444  0.87750770    -0.12900
C635        C  0.09362563  0.24524360  0.90687809     0.00800
C636        C  0.12277867  0.25430933  0.91656990    -0.11400
C637        C  0.14431849  0.26826172  0.89532212     0.03300
C638        C  0.13524116  0.27388418  0.86356975    -0.10800
H639        H  0.06050927  0.24745815  0.87059552     0.08900
H640        H  0.13033133  0.24619768  0.93944737     0.06400
H641        H  0.15214232  0.28187963  0.84591312     0.06300
C642        C  0.41789702  0.22525666  0.85240799     0.03300
C643        C  0.41034327  0.19321994  0.85753405    -0.12900
C644        C  0.38169117  0.18362449  0.87107553     0.00800
C645        C  0.35996542  0.20625976  0.87555748    -0.11400
C646        C  0.37054391  0.23620019  0.88263836     0.03300
C647        C  0.39903036  0.24683599  0.86841978    -0.10800
H648        H  0.42722045  0.17580571  0.85291850     0.08900
H649        H  0.33729902  0.19832620  0.88407807     0.06400
H650        H  0.40706762  0.27045475  0.87118392     0.06300
N651        N  0.47566608  0.10420241  0.95956688    -0.36400
N652        N  0.01598498  0.10626946  0.50529336    -0.57000
N653        N  0.47055320  0.08321349  0.55913435    -0.36400
N654        N  0.42657446  0.08413935  0.50574884    -0.57000
C655        C  0.00974425  0.12804077  0.95080563     0.27100
C656        C  0.44802249  0.11201908  0.94801885     0.27100
C657        C  0.99781932  0.10278009  0.57267374     0.27100
C658        C  0.44344865  0.08467610  0.57518490     0.27100
C659        C  0.05446496  0.11691660  0.98421945     0.35800
C660        C  0.03546820  0.10255087  0.52915984     0.35800
C661        C  0.41441161  0.07889986  0.98346036     0.35800
C662        C  0.40853504  0.07372821  0.53030987     0.35800
C663        C  0.99613279  0.14399018  0.92627501    -0.21700
C664        C  0.45207983  0.13751067  0.92751756    -0.21700
C665        C  0.98743336  0.11287618  0.60140670    -0.21700
C666        C  0.44886886  0.09667147  0.60479147    -0.21700
C667        C  0.08549241  0.11851428  0.99105400    -0.22800
C668        C  0.06554479  0.10627054  0.51785849    -0.22800
C669        C  0.38669906  0.06484543  0.99303277    -0.22800
C670        C  0.37960775  0.06557931  0.51951546    -0.22800
C671        C  0.04134650  0.13104286  0.95776435    -0.18100
C672        C  0.41923532  0.09691191  0.95538968    -0.18100
C673        C  0.41368536  0.08232856  0.56168507    -0.18100
C674        C  0.02658773  0.11195920  0.55902731    -0.18100
H675        H  0.00683294  0.15905514  0.90833248     0.14800
H676        H  0.43519115  0.14965259  0.91416023     0.14800
H677        H  0.00022023  0.12638323  0.61801158     0.14800
H678        H  0.43232218  0.10150565  0.62322151     0.14800
H679        H  0.10430830  0.12704035  0.97585460     0.13100
H680        H  0.08623942  0.10823506  0.53117295     0.13100
H681        H  0.36592837  0.06286686  0.97948331     0.13100
H682        H  0.35931661  0.05944371  0.53380410     0.13100
H683        H  0.47990389  0.08560056  0.97480550     0.26300
H684        H  0.47336739  0.07621856  0.53608613     0.26300
C685        C  0.09241976  0.16644174  0.72164735     0.42600
N686        N  0.05900708  0.19998238  0.73791110     0.01500
C687        C  0.44972516  0.27698295  0.65621798    -0.06400
H688        H  0.05937417  0.32332596  0.63279178     0.07000
C689        C  0.06973420  0.33753936  0.75458697    -0.06700
Co690      Co  0.52047349  0.22064818  0.69054037     0.74200
N691        N  0.04168631  0.28587454  0.66272985    -0.25900
Co692      Co  0.50636610  0.30067092  0.69522619     0.74100
C693        C  0.08029935  0.35724972  0.72781767     0.42700
N694        N  0.05225457  0.27423661  0.79356598     0.01100
N695        N  0.03985896  0.32976833  0.71577353     0.01200
N696        N  0.46191839  0.22675942  0.65323891    -0.46700
H697        H  0.07611320  0.17322714  0.67067836     0.07000
N698        N  0.04785839  0.25614152  0.66378680     0.01500
N699        N  0.46989190  0.31710917  0.72445648     0.01300
C700        C  0.43042946  0.33995025  0.74536172     0.42900
N701        N  0.05657995  0.24439955  0.79113094    -0.25400
C702        C  0.46915433  0.16841063  0.70353744    -0.06300
N703        N  0.08020699  0.18032181  0.74713216    -0.46500
N704        N  0.44510865  0.33403035  0.71745237    -0.46700
C705        C  0.45608123  0.15227216  0.73173805     0.42600
N706        N  0.48301184  0.24211865  0.66875472     0.01500
N707        N  0.48626998  0.22922054  0.79911075    -0.25400
N708        N  0.05598236  0.20073976  0.70715586    -0.25900
N709        N  0.48030242  0.25876261  0.80223009     0.01100
H710        H  0.46643940  0.18716461  0.81910941     0.07000
H711        H  0.44681661  0.32604825  0.79514100     0.07100
N712        N  0.47648473  0.27170904  0.67106668    -0.25900
N713        N  0.04404493  0.32315131  0.74577312    -0.25500
N714        N  0.49075084  0.18623717  0.74514785     0.01500
C715        C  0.08061238  0.27520485  0.62868639     0.42900
C716        C  0.08157956  0.23729791  0.80797764    -0.06800
N717        N  0.47245908  0.31220105  0.75510233    -0.25500
H718        H  0.07817662  0.33755293  0.77831323     0.07100
N719        N  0.07066257  0.24911058  0.64441791    -0.46700
H720        H  0.08961872  0.21408494  0.81230909     0.07000
C721        C  0.44639624  0.23408451  0.83269376     0.42700
C722        C  0.07580122  0.18027117  0.69489277    -0.06300
Co723      Co  0.52231142  0.21355584  0.77082667     0.73800
N724        N  0.07244464  0.28772356  0.81217368    -0.46500
C725        C  0.44005774  0.24677775  0.64439381     0.43000
N726        N  0.47134483  0.16426579  0.75637917    -0.46500
Co727      Co  0.50993662  0.29154474  0.77708301     0.73900
C728        C  0.44911303  0.32530119  0.76979909    -0.06800
C729        C  0.06060171  0.29955388  0.64069961    -0.09300
N730        N  0.49010272  0.18898150  0.71416866    -0.25900
N731        N  0.06015142  0.35110412  0.70451851    -0.46600
H732        H  0.43820937  0.29889235  0.65462633     0.07000
C733        C  0.46645513  0.21213382  0.81717699    -0.06800
Cl734      Cl  0.51446450  0.25652076  0.73346199    -0.49800
C735        C  0.09278520  0.26637692  0.82200853     0.42800
H736        H  0.46446933  0.16443182  0.67908216     0.07000
N737        N  0.45633964  0.26280627  0.82201841    -0.46500
C738        C  0.25776641  0.35845691  0.59257117     0.03300
C739        C  0.22870936  0.34868605  0.60509603    -0.12900
C740        C  0.21423480  0.36546430  0.62816474     0.00800
C741        C  0.23234205  0.38307340  0.64758296    -0.11400
C742        C  0.26047679  0.39597455  0.63592984     0.03300
C743        C  0.27378072  0.38314857  0.60796141    -0.10800
H744        H  0.21434926  0.33247330  0.59272948     0.08900
H745        H  0.22055395  0.39363635  0.66718062     0.06400
H746        H  0.29385343  0.39425628  0.59664555     0.06300
C747        C  0.24263340  0.14290061  0.58861346     0.03300
C748        C  0.21067479  0.14072609  0.59567511    -0.12900
C749        C  0.19962981  0.12283953  0.62143002     0.00800
C750        C  0.22056540  0.11383631  0.64386423    -0.11400
C751        C  0.25054654  0.10697704  0.63347351     0.03300
C752        C  0.26265026  0.12353773  0.60634637    -0.10800
H753        H  0.19410077  0.14955659  0.57914011     0.08900
H754        H  0.21116555  0.10223146  0.66496425     0.06400
H755        H  0.28590220  0.11955867  0.59784826     0.06300
C756        C  0.25115773  0.13054272  0.90888955     0.03300
C757        C  0.22836442  0.11432558  0.92706175    -0.12900
C758        C  0.21455623  0.08728716  0.91660193     0.00800
C759        C  0.22439376  0.07553950  0.88774571    -0.11400
C760        C  0.24799753  0.09066343  0.86909229     0.03300
C761        C  0.26153827  0.11836175  0.88004129    -0.10800
H762        H  0.21991055  0.12379474  0.94889372     0.08900
H763        H  0.21295157  0.05487817  0.87948775     0.06400
H764        H  0.27822668  0.13134675  0.86534084     0.06300
C765        C  0.26302129  0.42793294  0.87056821     0.03300
C766        C  0.24020851  0.43439606  0.89359449    -0.12900
C767        C  0.24129194  0.42039296  0.92379822     0.00800
C768        C  0.26633462  0.40236469  0.93128446    -0.11400
C769        C  0.28264766  0.38868371  0.90677620     0.03300
C770        C  0.28290886  0.40307598  0.87659573    -0.10800
H771        H  0.22138972  0.44953658  0.88799188     0.08900
H772        H  0.26649470  0.39137655  0.95458487     0.06400
H773        H  0.29629051  0.39351820  0.85753548     0.06300
N774        N  0.11088282  0.05401569  0.54305998    -0.36400
N775        N  0.09392527  0.48327854  0.59544897    -0.57000
N776        N  0.10573117  0.44132033  0.54241918    -0.36400
N777        N  0.11580067  0.47151223  0.99223102    -0.57000
C778        C  0.09150739  0.04326081  0.56678078     0.27100
C779        C  0.09191445  0.03609710  0.00921159     0.27100
C780        C  0.09622845  0.42198556  0.56651406     0.27100
C781        C  0.11580497  0.40819585  0.01987223     0.27100
C782        C  0.09453016  0.00809213  0.61205159     0.35800
C783        C  0.09882576  0.45702874  0.61216499     0.35800
C784        C  0.10286024  0.00214306  0.96698105     0.35800
C785        C  0.12499829  0.44694404  0.97626359     0.35800
C786        C  0.06486829  0.03105414  0.55443557    -0.21700
C787        C  0.06290876  0.02404082  0.01780720    -0.21700
C788        C  0.09298490  0.39220724  0.55537474    -0.21700
C789        C  0.11118891  0.37761206  0.02932077    -0.21700
C790        C  0.10407043  0.99831894  0.64149948    -0.22800
C791        C  0.10844040  0.46414494  0.64215342    -0.22800
C792        C  0.11409763  0.99354835  0.93791728    -0.22800
C793        C  0.13794258  0.45661639  0.94731627    -0.22800
C794        C  0.10017075  0.03791281  0.59838394    -0.18100
C795        C  0.10649019  0.03155878  0.97975010    -0.18100
C796        C  0.12946445  0.41764437  0.99060386    -0.18100
C797        C  0.10214396  0.42779366  0.59850240    -0.18100
H798        H  0.04563965  0.01994148  0.56725529     0.14800
H799        H  0.04604341  0.01393710  0.00253096     0.14800
H800        H  0.08831967  0.37123924  0.56931216     0.14800
H801        H  0.11501932  0.35745365  0.01535628     0.14800
H802        H  0.11313032  0.01250888  0.65988307     0.13100
H803        H  0.11583830  0.44808431  0.66033260     0.13100
H804        H  0.12340286  0.00845415  0.91902905     0.13100
H805        H  0.14816809  0.44276085  0.92933532     0.13100
H806        H  0.13324049  0.06284915  0.54453053     0.26300
H807        H  0.11371809  0.46400967  0.54473124     0.26300
C808        C  0.09205245  0.38867121  0.73525303     0.03300
C809        C  0.07568629  0.40177935  0.76008580    -0.12900
C810        C  0.09145277  0.41717357  0.78314877     0.00800
C811        C  0.12140439  0.42811005  0.77684245    -0.11400
C812        C  0.13687039  0.42117892  0.74851900     0.03300
C813        C  0.12273748  0.39951582  0.72838269    -0.10800
H814        H  0.05210037  0.39401045  0.76533494     0.08900
H815        H  0.13244420  0.44212151  0.79427702     0.06400
H816        H  0.13583105  0.39010590  0.70905000     0.06300
C817        C  0.39416337  0.08670396  0.73236983     0.03300
C818        C  0.41020408  0.06434820  0.74943604    -0.12900
C819        C  0.43924142  0.07081558  0.76113174     0.00800
C820        C  0.45486641  0.09811150  0.75103126    -0.11400
C821        C  0.44004302  0.12127095  0.73379001     0.03300
C822        C  0.40912691  0.11560367  0.72436366    -0.10800
H823        H  0.39794603  0.04348127  0.75779603     0.08900
H824        H  0.47740259  0.10315198  0.76012432     0.06400
H825        H  0.39643135  0.13386206  0.71289081     0.06300
C826        C  0.10044357  0.13304891  0.72544658     0.03300
C827        C  0.13054951  0.12123711  0.72073589    -0.12900
C828        C  0.13814698  0.09234076  0.73509370     0.00800
C829        C  0.11727405  0.07898900  0.75749818    -0.11400
C830        C  0.08741234  0.09038890  0.76237983     0.03300
C831        C  0.07840561  0.11463584  0.74235601    -0.10800
H832        H  0.14799572  0.13480966  0.70764977     0.08900
H833        H  0.12528312  0.06007351  0.77204961     0.06400
H834        H  0.05484567  0.12184172  0.74235306     0.06300
C835        C  0.36889803  0.40489144  0.75580278     0.03300
C836        C  0.36100870  0.39526704  0.78706555    -0.12900
C837        C  0.37545619  0.37086263  0.80187825     0.00800
C838        C  0.38888069  0.34898157  0.78327845    -0.11400
C839        C  0.40120900  0.35752586  0.75324971     0.03300
C840        C  0.39063350  0.38609169  0.73887728    -0.10800
H841        H  0.34697803  0.40912966  0.80218956     0.08900
H842        H  0.39599763  0.32807189  0.79538260     0.06400
H843        H  0.40064937  0.39451864  0.71665870     0.06300
N844        N  0.43519401  0.47493388  0.91363661    -0.36400
N845        N  0.50247879  0.03388995  0.88312732    -0.57000
N846        N  0.05390246  0.48412581  0.89405343    -0.36400
N847        N  0.48120492  0.41381815  0.90657908    -0.57000
C848        C  0.43272579  0.99374320  0.89892782     0.27100
C849        C  0.41585870  0.44997523  0.91325877     0.27100
C850        C  0.03674449  0.02122574  0.89797109     0.27100
C851        C  0.05163689  0.46011368  0.91482917     0.27100
C852        C  0.47712992  0.02830564  0.90096203     0.35800
C853        C  0.00025180  0.05920640  0.89046975     0.35800
C854        C  0.45624626  0.41429090  0.92613998     0.35800
C855        C  0.01215580  0.41868544  0.92240611     0.35800
C856        C  0.40356414  0.98484298  0.88969483    -0.21700
C857        C  0.38753780  0.45912400  0.90185345    -0.21700
C858        C  0.04015446  0.01485116  0.92977069    -0.21700
C859        C  0.05770462  0.47076746  0.94451239    -0.21700
C860        C  0.48237413  0.03448773  0.93197760    -0.22800
C861        C  0.98628687  0.05835630  0.92012361    -0.22800
C862        C  0.46500309  0.42383316  0.95537675    -0.22800
C863        C  0.00335009  0.42349033  0.95349302    -0.22800
C864        C  0.44918942  0.02035102  0.88765475    -0.18100
C865        C  0.42654615  0.41913707  0.91443083    -0.18100
C866        C  0.03874053  0.43136096  0.90640089    -0.18100
C867        C  0.03068694  0.04969680  0.88363978    -0.18100
H868        H  0.38784066  0.99839744  0.87580034     0.14800
H869        H  0.36791909  0.44436626  0.89677760     0.14800
H870        H  0.04436228  0.03127407  0.94790394     0.14800
H871        H  0.05883331  0.45769190  0.96639593     0.14800
H872        H  0.46602780  0.03252233  0.95155410     0.13100
H873        H  0.99693611  0.05471617  0.94260448     0.13100
H874        H  0.44988078  0.42894707  0.97504417     0.13100
H875        H  0.01689681  0.43197955  0.97241189     0.13100
H876        H  0.45881293  0.47461953  0.91782060     0.26300
H877        H  0.04824156  0.48441717  0.87035982     0.26300
C878        C  0.16777226  0.43630564  0.74251463     0.42600
N879        N  0.20173363  0.47238254  0.75121863     0.01500
C880        C  0.28899653  0.06272160  0.65572555    -0.06400
H881        H  0.31838913  0.43801795  0.65538102     0.07000
C882        C  0.34747784  0.45905336  0.77065868    -0.06700
Co883      Co  0.22481805  0.00080489  0.69746197     0.74200
N884        N  0.28443127  0.46998904  0.67291642    -0.25900
Co885      Co  0.30585176  0.00407029  0.69954074     0.74100
C886        C  0.35829914  0.43745616  0.74692310     0.42700
N887        N  0.27820703  0.47906699  0.80418030     0.01100
N888        N  0.33112280  0.47423126  0.72537777     0.01200
N889        N  0.23792197  0.05450580  0.65339060    -0.46700
H890        H  0.17449600  0.44334965  0.68875879     0.07000
N891        N  0.25398519  0.46976883  0.67200760     0.01500
N892        N  0.32844098  0.04174077  0.72106293     0.01300
C893        C  0.36045875  0.08005152  0.72997553     0.42900
N894        N  0.24783450  0.47767590  0.80238286    -0.25400
C895        C  0.17983675  0.05860536  0.70503809    -0.06300
N896        N  0.18177867  0.45262286  0.76506363    -0.46500
N897        N  0.34981798  0.06071686  0.70779258    -0.46700
C898        C  0.16864411  0.07687385  0.73179688     0.42600
N899        N  0.25073320  0.03220396  0.66971548     0.01500
N900        N  0.24335653  0.04595615  0.79920378    -0.25400
N901        N  0.20185260  0.47064579  0.72030684    -0.25900
N902        N  0.27345872  0.04799027  0.80259815     0.01100
H903        H  0.20484466  0.06585162  0.82290897     0.07000
H904        H  0.34703783  0.07753194  0.78268362     0.07100
N905        N  0.28096035  0.03573470  0.67129078    -0.25900
N906        N  0.33014448  0.47959009  0.75580277    -0.25500
N907        N  0.19919887  0.04075707  0.74792523     0.01500
C908        C  0.26653265  0.42824112  0.64738943     0.42900
C909        C  0.23652201  0.45686334  0.82377220    -0.06800
N910        N  0.32485904  0.04630369  0.75149023    -0.25500
H911        H  0.35085091  0.45870490  0.79578525     0.07100
N912        N  0.24278625  0.44574815  0.65715274    -0.46700
H913        H  0.21229537  0.45226861  0.82896289     0.07000
C914        C  0.25396043  0.07940116  0.83654108     0.42700
C915        C  0.18121206  0.44842439  0.71246294    -0.06300
Co916      Co  0.22131471  0.00964282  0.77764026     0.73800
N917        N  0.28848787  0.45995660  0.82650367    -0.46500
C918        C  0.26000779  0.07521987  0.64370904     0.43000
N919        N  0.18161757  0.06352024  0.75730951    -0.46500
Co920      Co  0.30333872  0.51346678  0.77719332     0.73900
C921        C  0.34287279  0.07050371  0.75888867    -0.06800
C922        C  0.29455372  0.44452044  0.65804223    -0.06300
N923        N  0.19899185  0.03722954  0.71726167    -0.25900
N924        N  0.34705407  0.44868983  0.71904839    -0.46600
H925        H  0.31158464  0.07347532  0.65503216     0.07000
C926        C  0.22949327  0.06539093  0.81847134    -0.06800
Cl927      Cl  0.26331363  0.00688266  0.73902794    -0.49800
C928        C  0.26343716  0.44474667  0.83959883     0.42800
H929        H  0.17350197  0.06040739  0.68063604     0.07000
N930        N  0.28075286  0.06701991  0.82569786    -0.46500
C931        C  0.37511438  0.37202760  0.86116743    -0.20100
C932        C  0.39051909  0.37777382  0.83206379    -0.06700
C933        C  0.41952552  0.39368078  0.83148559     0.14200
C934        C  0.43169391  0.40386859  0.85938920    -0.20200
C935        C  0.41589517  0.39985027  0.88814773    -0.06700
C936        C  0.38762513  0.38301450  0.88929953     0.14100
C937        C  0.36989712  0.37767302  0.91973983    -0.23500
H938        H  0.35284892  0.36011507  0.86182240     0.15400
H939        H  0.45278097  0.41732079  0.85824819     0.15500
C940        C  0.43731745  0.40218921  0.80147326    -0.23500
H941        H  0.34729616  0.38903543  0.91817253     0.05700
H942        H  0.38203677  0.38704452  0.94021703     0.08900
H943        H  0.36649209  0.35251673  0.92426436     0.08900
H944        H  0.42342099  0.41702329  0.78586237     0.08900
H945        H  0.44440106  0.38128919  0.78954292     0.08900
H946        H  0.45908741  0.41498446  0.80568074     0.05700
C947        C  0.03767295  0.08736002  0.83861969    -0.20100
C948        C  0.04511285  0.05842050  0.85172376    -0.06700
C949        C  0.06604361  0.04019577  0.83414859     0.14200
C950        C  0.07364435  0.04909863  0.80293816    -0.20200
C951        C  0.06813483  0.07903455  0.79068266    -0.06700
C952        C  0.04931807  0.09849212  0.80933625     0.14100
C953        C  0.04162772  0.13142104  0.80031738    -0.23500
H954        H  0.02346309  0.10232812  0.85239778     0.15400
H955        H  0.08661422  0.03304090  0.78908575     0.15500
C956        C  0.08463816  0.01402266  0.84780387    -0.23500
H957        H  0.02946043  0.14333994  0.81956298     0.05700
H958        H  0.02537926  0.13188011  0.78056493     0.08900
H959        H  0.06306828  0.14509662  0.79499733     0.08900
H960        H  0.07341875  0.99133083  0.84341996     0.08900
H961        H  0.08921017  0.01697970  0.87304781     0.08900
H962        H  0.10795507  0.01387110  0.83642117     0.05700
C963        C  0.45111917  0.07595787  0.81671403    -0.20100
C964        C  0.44674148  0.05599471  0.79180338    -0.06700
C965        C  0.44332023  0.02382876  0.79842185     0.14200
C966        C  0.44181394  0.01298954  0.82990458    -0.20200
C967        C  0.44481767  0.03334025  0.85503954    -0.06700
C968        C  0.45052170  0.06528135  0.84782380     0.14100
C969        C  0.45692930  0.08912344  0.87204424    -0.23500
H970        H  0.45366165  0.10069068  0.81211090     0.15400
H971        H  0.43966515  0.98829098  0.83469180     0.15500
C972        C  0.44222484  0.00039362  0.77289850    -0.23500
H973        H  0.44298671  0.10986157  0.86756552     0.05700
H974        H  0.48156869  0.09657476  0.87059909     0.08900
H975        H  0.45127649  0.08040976  0.89607691     0.08900
H976        H  0.44559760  0.01117172  0.74906125     0.08900
H977        H  0.41966621  0.98771212  0.77404871     0.08900
H978        H  0.46094991  0.98356970  0.77635423     0.05700
C979        C  0.04871455  0.43322606  0.81743354    -0.20100
C980        C  0.07701413  0.41868046  0.81475020    -0.06700
C981        C  0.08932783  0.40342035  0.84140272     0.14200
C982        C  0.07399176  0.40535399  0.87062769    -0.20200
C983        C  0.04674919  0.42199774  0.87387870    -0.06700
C984        C  0.03349602  0.43541749  0.84650420     0.14100
C985        C  0.00542305  0.45525417  0.84696904    -0.23500
H986        H  0.03897961  0.44414399  0.79671431     0.15400
H987        H  0.08425931  0.39528389  0.89145698     0.15500
C988        C  0.11833170  0.38486753  0.83921454    -0.23500
H989        H  0.01113703  0.47894006  0.83751493     0.05700
H990        H  0.99495279  0.45724289  0.87071739     0.08900
H991        H  0.98862484  0.44573810  0.83081099     0.08900
H992        H  0.13835198  0.40015840  0.83238310     0.08900
H993        H  0.11552537  0.36665471  0.82153980     0.08900
H994        H  0.12360922  0.37330582  0.86207673     0.05700
C995        C  0.18534910  0.42000700  0.99390359    -0.20100
C996        C  0.15966000  0.40437942  0.98160908    -0.06700
C997        C  0.16318309  0.38936904  0.95283676     0.14200
C998        C  0.18995127  0.39553995  0.93423970    -0.20200
C999        C  0.21336256  0.41590826  0.94423828    -0.06700
C1000       C  0.21181658  0.42674750  0.97525096     0.14100
C1001       C  0.23667295  0.44701432  0.98871593    -0.23500
H1002       H  0.18286112  0.43116614  0.01632138     0.15400
H1003       H  0.19223588  0.38516055  0.91142414     0.15500
C1004       C  0.13763921  0.36907105  0.94089655    -0.23500
H1005       H  0.22668780  0.46933527  0.99563963     0.05700
H1006       H  0.25599270  0.45234658  0.97182338     0.08900
H1007       H  0.24612800  0.43530337  0.00988407     0.08900
H1008       H  0.11628040  0.38250596  0.93827791     0.08900
H1009       H  0.13306893  0.34943628  0.95786075     0.08900
H1010       H  0.14382785  0.35942279  0.91772894     0.05700
C1011       C  0.16323967  0.04410539  0.97833150    -0.20100
C1012       C  0.13354418  0.05067609  0.96744311    -0.06700
C1013       C  0.13104858  0.06954747  0.93998345     0.14200
C1014       C  0.15773275  0.08073908  0.92374297    -0.20200
C1015       C  0.18723419  0.07381783  0.93432189    -0.06700
C1016       C  0.19003488  0.05597909  0.96242241     0.14100
C1017       C  0.22133748  0.04889345  0.97507951    -0.23500
H1018       H  0.16550803  0.02861558  0.99859770     0.15400
H1019       H  0.15547377  0.09509295  0.90261403     0.15500
C1020       C  0.10049058  0.07808488  0.92692294    -0.23500
H1021       H  0.21960032  0.03445968  0.99706706     0.05700
H1022       H  0.23376242  0.07076202  0.98045469     0.08900
H1023       H  0.23492474  0.03624987  0.95734321     0.08900
H1024       H  0.08073370  0.06971242  0.94188373     0.08900
H1025       H  0.09806468  0.06893316  0.90295268     0.08900
H1026       H  0.09978538  0.10356589  0.92578897     0.05700
C1027       C  0.15493903  0.05230499  0.59635857    -0.20100
C1028       C  0.12617334  0.05644725  0.61056444    -0.06700
C1029       C  0.12286405  0.07935802  0.63334627     0.14200
C1030       C  0.14690864  0.10149390  0.63635148    -0.20200
C1031       C  0.17362471  0.10074584  0.61702292    -0.06700
C1032       C  0.17780685  0.07523516  0.59713643     0.14100
C1033       C  0.20559619  0.07210668  0.57551280    -0.23500
H1034       H  0.15808819  0.03265648  0.58137343     0.15400
H1035       H  0.14462481  0.11955232  0.65329081     0.15500
C1036       C  0.09497423  0.08017744  0.65510328    -0.23500
H1037       H  0.20418294  0.05073816  0.56167749     0.05700
H1038       H  0.22695378  0.07078895  0.58907989     0.08900
H1039       H  0.20715663  0.09188135  0.55832981     0.08900
H1040       H  0.10222798  0.07556998  0.67961828     0.08900
H1041       H  0.07720236  0.06247550  0.64949859     0.08900
H1042       H  0.08417606  0.10315653  0.65403004     0.05700
C1043       C  0.15730351  0.42117652  0.59453396    -0.20100
C1044       C  0.12967345  0.41100290  0.60898616    -0.06700
C1045       C  0.12917292  0.38487321  0.62944350     0.14200
C1046       C  0.15691657  0.36940578  0.63517679    -0.20200
C1047       C  0.18455016  0.37940539  0.61984941    -0.06700
C1048       C  0.18430951  0.40528496  0.59844203     0.14100
C1049       C  0.21186589  0.41679704  0.57886073    -0.23500
H1050       H  0.15731161  0.44142749  0.57886679     0.15400
H1051       H  0.15711788  0.34981993  0.65163710     0.15500
C1052       C  0.09963511  0.37393007  0.64517088    -0.23500
H1053       H  0.20621836  0.43682342  0.56334608     0.05700
H1054       H  0.22000725  0.39845797  0.56329440     0.08900
H1055       H  0.23035998  0.42534123  0.59386892     0.08900
H1056       H  0.10288864  0.35215592  0.65903235     0.08900
H1057       H  0.08210168  0.36987953  0.62708643     0.08900
H1058       H  0.09116915  0.39195293  0.66107166     0.05700
C1059       C  0.37546535  0.16033344  0.92489596    -0.20100
C1060       C  0.37890740  0.15539482  0.89242138    -0.06700
C1061       C  0.38301349  0.12478161  0.88274339     0.14200
C1062       C  0.38970784  0.10159497  0.90568526    -0.20200
C1063       C  0.39233528  0.10889701  0.93767795    -0.06700
C1064       C  0.38046491  0.13713481  0.94754190     0.14100
C1065       C  0.37856586  0.14491544  0.98186451    -0.23500
H1066       H  0.37305384  0.18334589  0.93305691     0.15400
H1067       H  0.39647733  0.07893549  0.89825736     0.15500
C1068       C  0.38155992  0.11698342  0.84855442    -0.23500
H1069       H  0.36843435  0.16798170  0.98540076     0.05700
H1070       H  0.40197498  0.14529987  0.99177008     0.08900
H1071       H  0.36376074  0.12745585  0.99493782     0.08900
H1072       H  0.39965186  0.13012713  0.83466336     0.08900
H1073       H  0.35857027  0.12299845  0.83944465     0.08900
H1074       H  0.38498271  0.09191339  0.84510203     0.05700
C1075       C  0.05858572  0.18511721  0.96383397    -0.20100
C1076       C  0.05765472  0.15911787  0.94456429    -0.06700
C1077       C  0.06779186  0.16215853  0.91289733     0.14200
C1078       C  0.07960926  0.19060664  0.90172450    -0.20200
C1079       C  0.07992443  0.21661320  0.92073622    -0.06700
C1080       C  0.06915830  0.21406147  0.95204007     0.14100
C1081       C  0.06736653  0.24202992  0.97219426    -0.23500
H1082       H  0.04967849  0.18295222  0.98781614     0.15400
H1083       H  0.08810222  0.19268829  0.87754595     0.15500
C1084       C  0.06455321  0.13693991  0.88957740    -0.23500
H1085       H  0.05726531  0.23598807  0.99566810     0.05700
H1086       H  0.05260495  0.25958954  0.96084037     0.08900
H1087       H  0.09063514  0.25230393  0.97554065     0.08900
H1088       H  0.04993682  0.14542336  0.87025567     0.08900
H1089       H  0.05359331  0.11555318  0.90001459     0.08900
H1090       H  0.08751668  0.13139625  0.87942755     0.05700
C1091       C  0.40085865  0.13622836  0.55899117    -0.20100
C1092       C  0.39329994  0.10718977  0.57271875    -0.06700
C1093       C  0.37722723  0.10537891  0.60196190     0.14200
C1094       C  0.37090133  0.13289926  0.61773226    -0.20200
C1095       C  0.38208793  0.16156455  0.60540699    -0.06700
C1096       C  0.39756692  0.16309033  0.57567923     0.14100
C1097       C  0.41338143  0.19225697  0.56230660    -0.23500
H1098       H  0.41433832  0.13737577  0.53725254     0.15400
H1099       H  0.35899715  0.13188943  0.64041508     0.15500
C1100       C  0.36985427  0.07446336  0.61766910    -0.23500
H1101       H  0.42535399  0.18840873  0.53943467     0.05700
H1102       H  0.43118780  0.20049683  0.57864287     0.08900
H1103       H  0.39650043  0.21049799  0.55798250     0.08900
H1104       H  0.39090682  0.06040861  0.61923027     0.08900
H1105       H  0.35236205  0.06184888  0.60394451     0.08900
H1106       H  0.36111519  0.07716719  0.64204922     0.05700
C1107       C  0.02035762  0.16866030  0.55384314    -0.20100
C1108       C  0.03814416  0.14400732  0.56518690    -0.06700
C1109       C  0.06882859  0.15019945  0.57367287     0.14200
C1110       C  0.08198878  0.17950627  0.56745835    -0.20200
C1111       C  0.06475162  0.20382891  0.55484378    -0.06700
C1112       C  0.03297779  0.19864041  0.54936658     0.14100
C1113       C  0.01177387  0.22381103  0.53857038    -0.23500
H1114       H  0.99671650  0.16416412  0.54711659     0.15400
H1115       H  0.10571954  0.18377700  0.57404180     0.15500
C1116       C  0.08812109  0.12661721  0.58986969    -0.23500
H1117       H  0.00118350  0.21742946  0.51603264     0.05700
H1118       H  0.02378206  0.24652559  0.53479618     0.08900
H1119       H  0.99309859  0.22646831  0.55650408     0.08900
H1120       H  0.10939416  0.12239679  0.57578853     0.08900
H1121       H  0.07526845  0.10441782  0.59423081     0.08900
H1122       H  0.09515825  0.13600226  0.61268192     0.05700
C1123       C  0.25370361  0.66270655  0.05784696     0.42600
N1124       N  0.24803953  0.69320687  0.01738099     0.01500
C1125       C  0.34855094  0.78654590  0.42925618    -0.06400
H1126       H  0.34524084  0.80211488  0.06345043     0.07000
C1127       C  0.23653669  0.83622981  0.04084774    -0.06700
Co1128     Co  0.30347698  0.72089515  0.48897175     0.74200
N1129       N  0.32821508  0.77182799  0.02732252    -0.25900
Co1130     Co  0.30924147  0.79869256  0.99053649     0.74100
C1131       C  0.26082543  0.84500983  0.06267024     0.42700
N1132       N  0.19946732  0.77226355  0.01301671     0.01100
N1133       N  0.28030907  0.82070493  0.02325213     0.01200
N1134       N  0.34557213  0.73504575  0.43367425    -0.46700
H1135       H  0.30673088  0.66837192  0.05457521     0.07000
N1136       N  0.32643291  0.74143133  0.02593644     0.01500
N1137       N  0.28479819  0.82674796  0.45352116     0.01300
C1138       C  0.27670347  0.85873143  0.41454683     0.42900
N1139       N  0.20027585  0.74180223  0.01270518    -0.25400
C1140       C  0.29484874  0.67533002  0.43308317    -0.06300
N1141       N  0.23278309  0.67592303  0.03883005    -0.46500
N1142       N  0.29835099  0.84782293  0.43428656    -0.46700
C1143       C  0.26861232  0.66287973  0.41565919     0.42600
N1144       N  0.33076926  0.74731352  0.45722908     0.01500
N1145       N  0.20557809  0.74592089  0.44284815    -0.25400
N1146       N  0.27813599  0.69250206  0.02098118    -0.25900
N1147       N  0.20423881  0.77630443  0.44315343     0.01100
H1148       H  0.18287385  0.71166028  0.41545157     0.07000
H1149       H  0.22502489  0.84543700  0.41574727     0.07100
N1150       N  0.33188273  0.77780776  0.45582617    -0.25900
N1151       N  0.25033480  0.82077838  0.01803018    -0.25500
N1152       N  0.25331339  0.69769158  0.44816088     0.01500
C1153       C  0.34668582  0.74898218  0.07109959     0.42900
C1154       C  0.17850656  0.73004924  0.03260897    -0.06800
N1155       N  0.25498846  0.82383920  0.44871643    -0.25500
H1156       H  0.21193518  0.83968668  0.04268268     0.07100
N1157       N  0.33709076  0.72738149  0.05108444    -0.46700
H1158       H  0.17261683  0.70570208  0.03572332     0.07000
C1159       C  0.17411877  0.76313361  0.40513167     0.42700
C1160       C  0.28410269  0.67370829  0.04597677    -0.06300
Co1161     Co  0.22467809  0.72045793  0.47982767     0.73800
N1162       N  0.17681176  0.78217534  0.03166084    -0.46500
C1163       C  0.35817902  0.75749760  0.41455436     0.43000
N1164       N  0.24382765  0.67803679  0.42691750    -0.46500
Co1165     Co  0.22874761  0.79775355  0.98093797     0.73900
C1166       C  0.24822191  0.84125624  0.42352149    -0.06800
C1167       C  0.34130218  0.77902243  0.05505791    -0.06300
N1168       N  0.28324563  0.69663655  0.45234348    -0.25900
N1169       N  0.28754701  0.83436167  0.05008120    -0.46600
H1170       H  0.35158494  0.80984612  0.42004877     0.07000
C1171       C  0.18845855  0.73575067  0.41927820    -0.06800
Cl1172     Cl  0.26816217  0.75824123  0.98539597    -0.49800
C1173       C  0.16276665  0.75666987  0.04546844     0.42800
H1174       H  0.31823775  0.66726127  0.43337683     0.07000
N1175       N  0.18491750  0.78732601  0.42184180    -0.46500
C1176       C  0.13046527  0.75493636  0.05854961     0.03300
C1177       C  0.11033206  0.73255176  0.04618157    -0.12900
C1178       C  0.08114884  0.72637871  0.05982252     0.00800
C1179       C  0.07043609  0.74490453  0.08352578    -0.11400
C1180       C  0.09073778  0.76447260  0.09906091     0.03300
C1181       C  0.12086782  0.77031295  0.08611019    -0.10800
H1182       H  0.11819735  0.71787787  0.02752986     0.08900
H1183       H  0.04817509  0.73904425  0.09451849     0.06400
H1184       H  0.13724351  0.78443283  0.09856846     0.06300
C1185       C  0.36052288  0.73916812  0.10158049     0.03300
C1186       C  0.35406289  0.70796402  0.11024570    -0.12900
C1187       C  0.37693598  0.69023426  0.12341033     0.00800
C1188       C  0.39991582  0.70511669  0.13990928    -0.11400
C1189       C  0.40565730  0.73723326  0.13559564     0.03300
C1190       C  0.38613085  0.75441873  0.11534035    -0.10800
H1191       H  0.33549309  0.69547271  0.09910666     0.08900
H1192       H  0.41660576  0.69062048  0.15140640     0.06400
H1193       H  0.39260678  0.77784876  0.10788796     0.06300
C1194       C  0.10095050  0.76169369  0.35522402     0.03300
C1195       C  0.08067223  0.74776183  0.37739563    -0.12900
C1196       C  0.09109424  0.73746237  0.40626352     0.00800
C1197       C  0.12067295  0.74530551  0.41567419    -0.11400
C1198       C  0.14154816  0.76099580  0.39481503     0.03300
C1199       C  0.13183486  0.76864912  0.36380526    -0.10800
H1200       H  0.05755702  0.74089319  0.37057431     0.08900
H1201       H  0.12830706  0.73659393  0.43832257     0.06400
H1202       H  0.14823385  0.77825050  0.34642476     0.06300
C1203       C  0.41761564  0.73658624  0.35087571     0.03300
C1204       C  0.40785340  0.70509915  0.35373811    -0.12900
C1205       C  0.37941137  0.69651599  0.36776204     0.00800
C1206       C  0.35875914  0.71989022  0.37354738    -0.11400
C1207       C  0.37098387  0.74855042  0.38276132     0.03300
C1208       C  0.40025801  0.75823432  0.36889691    -0.10800
H1209       H  0.42326029  0.68675853  0.34786668     0.08900
H1210       H  0.33602232  0.71249373  0.38235532     0.06400
H1211       H  0.41005570  0.78082626  0.37358515     0.06300
N1212       N  0.47254362  0.61165844  0.46147029    -0.36400
N1213       N  0.02278528  0.60053213  0.99974140    -0.57000
N1214       N  0.48369577  0.58819048  0.04917004    -0.36400
N1215       N  0.43540141  0.58896659  0.00075935    -0.57000
C1216       C  0.98931926  0.63279988  0.44965645     0.27100
C1217       C  0.44649614  0.61981919  0.44678545     0.27100
C1218       C  0.00277963  0.59252881  0.06711062     0.27100
C1219       C  0.45816046  0.59038430  0.06775839     0.27100
C1220       C  0.03216799  0.61777464  0.48253044     0.35800
C1221       C  0.04141584  0.59504645  0.02402276     0.35800
C1222       C  0.40834245  0.58972858  0.48064354     0.35800
C1223       C  0.41834320  0.58091615  0.02683478     0.35800
C1224       C  0.97527234  0.65385513  0.43002148    -0.21700
C1225       C  0.45347211  0.64384032  0.42510974    -0.21700
C1226       C  0.99216608  0.60060534  0.09653738    -0.21700
C1227       C  0.46645098  0.60240017  0.09653675    -0.21700
C1228       C  0.06259967  0.61860641  0.49023015    -0.22800
C1229       C  0.07191291  0.59911689  0.01391072    -0.22800
C1230       C  0.37889629  0.57859346  0.48833956    -0.22800
C1231       C  0.38786580  0.57605677  0.01867042    -0.22800
C1232       C  0.02036227  0.63447357  0.45728901    -0.18100
C1233       C  0.41625392  0.60736422  0.45307662    -0.18100
C1234       C  0.42707825  0.58832681  0.05766221    -0.18100
C1235       C  0.03162334  0.60257036  0.05430486    -0.18100
H1236       H  0.98554527  0.67389589  0.41770157     0.14800
H1237       H  0.43842328  0.65537392  0.40894310     0.14800
H1238       H  0.00497241  0.61248308  0.11434461     0.14800
H1239       H  0.45130375  0.60785558  0.11606384     0.14800
H1240       H  0.08039997  0.63137554  0.47737130     0.13100
H1241       H  0.09213968  0.59941582  0.02825249     0.13100
H1242       H  0.35899168  0.57863248  0.47338508     0.13100
H1243       H  0.36830687  0.57205537  0.03462550     0.13100
H1244       H  0.47455243  0.59379348  0.47812289     0.26300
H1245       H  0.48433753  0.58106888  0.02602601     0.26300
C1246       C  0.08912529  0.65932689  0.23161952     0.42600
N1247       N  0.05593752  0.69443880  0.24390987     0.01500
C1248       C  0.44690434  0.77927919  0.15697911    -0.06400
H1249       H  0.06018138  0.81634884  0.13504138     0.07000
C1250       C  0.06343254  0.83728572  0.25932321    -0.06700
Co1251     Co  0.51849935  0.72288836  0.18867982     0.74200
N1252       N  0.04291725  0.77971455  0.16621284    -0.25900
Co1253     Co  0.50633186  0.80325593  0.19243541     0.74100
C1254       C  0.07490870  0.85633741  0.23235631     0.42700
N1255       N  0.04745893  0.77023768  0.29653074     0.01100
N1256       N  0.03808041  0.82510491  0.21838592     0.01200
N1257       N  0.45857957  0.72895740  0.15427504    -0.46700
H1258       H  0.07657149  0.66461398  0.17918954     0.07000
N1259       N  0.04933538  0.75001200  0.16815222     0.01500
N1260       N  0.47100969  0.82105681  0.22248342     0.01300
C1261       C  0.43279042  0.84546005  0.24398579     0.42900
N1262       N  0.05201957  0.74048021  0.29387626    -0.25400
C1263       C  0.46604637  0.67323429  0.20404425    -0.06300
N1264       N  0.07565694  0.67444651  0.25551150    -0.46500
N1265       N  0.44552117  0.83703713  0.21584638    -0.46700
C1266       C  0.45230087  0.65887017  0.23269127     0.42600
N1267       N  0.48082183  0.74456260  0.16783788     0.01500
N1268       N  0.48656815  0.73580908  0.29803962    -0.25400
N1269       N  0.05487304  0.69427250  0.21302814    -0.25900
N1270       N  0.48209862  0.76570797  0.30061697     0.01100
H1271       H  0.46501343  0.69532805  0.31922174     0.07000
H1272       H  0.45219743  0.83569870  0.29336157     0.07100
N1273       N  0.47471583  0.77425428  0.16999492    -0.25900
N1274       N  0.04026822  0.81993583  0.24894392    -0.25500
N1275       N  0.48850287  0.69142751  0.24489494     0.01500
C1276       C  0.08207798  0.76848909  0.13257764     0.42900
C1277       C  0.07797541  0.73356497  0.30893888    -0.06800
N1278       N  0.47532361  0.81834342  0.25310273    -0.25500
H1279       H  0.06935276  0.83903573  0.28373420     0.07100
N1280       N  0.07233446  0.74272790  0.14911215    -0.46700
H1281       H  0.08677196  0.71049574  0.31216319     0.07000
C1282       C  0.44713851  0.74363064  0.33184845     0.42700
C1283       C  0.07487202  0.67266558  0.20300577    -0.06300
Co1284     Co  0.52145966  0.71767555  0.26930497     0.73800
N1285       N  0.06847667  0.78389442  0.31404674    -0.46500
C1286       C  0.43614366  0.74875594  0.14667045     0.43000
N1287       N  0.46812518  0.67083292  0.25692827    -0.46500
Co1288     Co  0.51247322  0.79643489  0.27424264     0.73900
C1289       C  0.45328628  0.83325594  0.26811550    -0.06800
C1290       C  0.06189317  0.79296047  0.14396778    -0.09300
N1291       N  0.48789410  0.69309423  0.21389900    -0.25900
N1292       N  0.05739400  0.84761470  0.20781363    -0.46600
H1293       H  0.43528371  0.80114914  0.15593310     0.07000
C1294       C  0.46612293  0.72025263  0.31674365    -0.06800
Cl1295     Cl  0.51458236  0.76003486  0.23117949    -0.49800
C1296       C  0.08928697  0.76249942  0.32277697     0.42800
H1297       H  0.46108323  0.66863797  0.17978733     0.07000
N1298       N  0.45849302  0.77150883  0.32033090    -0.46500
C1299       C  0.25418307  0.85399425  0.09614191     0.03300
C1300       C  0.22493626  0.84401734  0.10803270    -0.12900
C1301       C  0.21001119  0.86061335  0.13096743     0.00800
C1302       C  0.22780422  0.87763732  0.15113588    -0.11400
C1303       C  0.25625039  0.89047676  0.14024998     0.03300
C1304       C  0.27000623  0.87819181  0.11231964    -0.10800
H1305       H  0.21078510  0.82806916  0.09511287     0.08900
H1306       H  0.21569731  0.88795043  0.17068206     0.06400
H1307       H  0.29024983  0.88949227  0.10154626     0.06300
C1308       C  0.24446049  0.64350936  0.08627130     0.03300
C1309       C  0.21247778  0.63890423  0.09182875    -0.12900
C1310       C  0.20174453  0.62117854  0.11772403     0.00800
C1311       C  0.22215673  0.61534227  0.14166663    -0.11400
C1312       C  0.25299361  0.61007633  0.13287941     0.03300
C1313       C  0.26511602  0.62647057  0.10564217    -0.10800
H1314       H  0.19605576  0.64551725  0.07412102     0.08900
H1315       H  0.21259108  0.60399639  0.16288512     0.06400
H1316       H  0.28898982  0.62400996  0.09835468     0.06300
C1317       C  0.26454052  0.62974615  0.40823109     0.03300
C1318       C  0.24879561  0.61148015  0.43124942    -0.12900
C1319       C  0.23448569  0.58362026  0.42384132     0.00800
C1320       C  0.23873056  0.57194253  0.39358712    -0.11400
C1321       C  0.25694078  0.58837170  0.37047760     0.03300
C1322       C  0.26950504  0.61782527  0.37786537    -0.10800
H1323       H  0.24391766  0.62104652  0.45412516     0.08900
H1324       H  0.22656894  0.55082114  0.38761707     0.06400
H1325       H  0.28115737  0.63204068  0.35970403     0.06300
C1326       C  0.25629194  0.93237423  0.37271554     0.03300
C1327       C  0.23414987  0.94092914  0.39547167    -0.12900
C1328       C  0.23333799  0.92667314  0.42557593     0.00800
C1329       C  0.25608648  0.90597062  0.43348249    -0.11400
C1330       C  0.27314413  0.89227810  0.40956463     0.03300
C1331       C  0.27475707  0.90657256  0.37935251    -0.10800
H1332       H  0.21669566  0.95753044  0.38947200     0.08900
H1333       H  0.25439277  0.89423393  0.45639264     0.06400
H1334       H  0.28805385  0.89628157  0.36065966     0.06300
N1335       N  0.11970060  0.54167496  0.04096320    -0.36400
N1336       N  0.08694557  0.97566936  0.08978748    -0.57000
N1337       N  0.09631672  0.93203035  0.03861817    -0.36400
N1338       N  0.10586670  0.98693879  0.49147666    -0.57000
C1339       C  0.10142892  0.53052503  0.06535822     0.27100
C1340       C  0.10851193  0.54672635  0.51954397     0.27100
C1341       C  0.09184679  0.91280228  0.06415642     0.27100
C1342       C  0.10502996  0.92286631  0.51719938     0.27100
C1343       C  0.10707733  0.49647518  0.11140098     0.35800
C1344       C  0.09441960  0.95078466  0.10750808     0.35800
C1345       C  0.12437788  0.51417967  0.47749362     0.35800
C1346       C  0.11593109  0.96295080  0.47513732     0.35800
C1347       C  0.07516076  0.51661329  0.05396359    -0.21700
C1348       C  0.07874423  0.53472466  0.52490056    -0.21700
C1349       C  0.09171917  0.88234028  0.05453998    -0.21700
C1350       C  0.10030735  0.89204108  0.52565745    -0.21700
C1351       C  0.11800774  0.48767196  0.14060120    -0.22800
C1352       C  0.10594036  0.96020615  0.13605204    -0.22800
C1353       C  0.13924023  0.50699537  0.44962802    -0.22800
C1354       C  0.13000222  0.97348804  0.44700729    -0.22800
C1355       C  0.11138600  0.52605695  0.09666278    -0.18100
C1356       C  0.12645396  0.54282593  0.49188066    -0.18100
C1357       C  0.11901313  0.93299579  0.48832436    -0.18100
C1358       C  0.09827076  0.92090663  0.09549243    -0.18100
H1359       H  0.05688964  0.50463726  0.06746755     0.14800
H1360       H  0.06294768  0.52532661  0.50843843     0.14800
H1361       H  0.09111302  0.86169574  0.06956859     0.14800
H1362       H  0.10415028  0.87234330  0.51102447     0.14800
H1363       H  0.12861668  0.50224473  0.15776773     0.13100
H1364       H  0.11557047  0.94572239  0.15440308     0.13100
H1365       H  0.15105484  0.52261327  0.43287273     0.13100
H1366       H  0.14116283  0.96047169  0.42895236     0.13100
H1367       H  0.14172386  0.55150429  0.04174416     0.26300
H1368       H  0.10113704  0.95570857  0.03890946     0.26300
C1369       C  0.08492403  0.88873919  0.23801485     0.03300
C1370       C  0.06613828  0.90360832  0.25974247    -0.12900
C1371       C  0.07910446  0.92355317  0.28094098     0.00800
C1372       C  0.10920487  0.93516186  0.27558140    -0.11400
C1373       C  0.12735211  0.92502761  0.25008663     0.03300
C1374       C  0.11549331  0.90035406  0.23206541    -0.10800
H1375       H  0.04289974  0.89463951  0.26473835     0.08900
H1376       H  0.11870656  0.95127797  0.29206851     0.06400
H1377       H  0.13037117  0.88915628  0.21529061     0.06300
C1378       C  0.39203438  0.59273127  0.23404115     0.03300
C1379       C  0.40932722  0.56988356  0.24877419    -0.12900
C1380       C  0.43834208  0.57668961  0.26008970     0.00800
C1381       C  0.45308832  0.60457332  0.25058938    -0.11400
C1382       C  0.43693299  0.62793607  0.23509724     0.03300
C1383       C  0.40578838  0.62220263  0.22693881    -0.10800
H1384       H  0.39795276  0.54824004  0.25621564     0.08900
H1385       H  0.47584347  0.60978380  0.25920064     0.06400
H1386       H  0.39223254  0.64058374  0.21683474     0.06300
C1387       C  0.09931765  0.62663083  0.23759430     0.03300
C1388       C  0.12690406  0.61372844  0.22502490    -0.12900
C1389       C  0.13679153  0.58418912  0.23640395     0.00800
C1390       C  0.11867650  0.56818309  0.25952110    -0.11400
C1391       C  0.09324140  0.58162773  0.27352074     0.03300
C1392       C  0.08297041  0.60986919  0.26173026    -0.10800
H1393       H  0.14142335  0.62726319  0.20856450     0.08900
H1394       H  0.12636132  0.54632399  0.26940727     0.06400
H1395       H  0.06337289  0.62004460  0.27346234     0.06300
C1396       C  0.36482245  0.90322522  0.25497189     0.03300
C1397       C  0.35675517  0.89231475  0.28565740    -0.12900
C1398       C  0.37448082  0.87066526  0.30093329     0.00800
C1399       C  0.39088234  0.85040365  0.28274211    -0.11400
C1400       C  0.40184746  0.85961392  0.25233585     0.03300
C1401       C  0.38846657  0.88683900  0.23805188    -0.10800
H1402       H  0.34079918  0.90462062  0.30033638     0.08900
H1403       H  0.40082754  0.83104323  0.29527196     0.06400
H1404       H  0.39798916  0.89647892  0.21609128     0.06300
N1405       N  0.43893761  0.97875738  0.41217118    -0.36400
N1406       N  0.49933041  0.54067103  0.38349412    -0.57000
N1407       N  0.05233208  0.98615535  0.39165068    -0.36400
N1408       N  0.48102140  0.91721443  0.40096447    -0.57000
C1409       C  0.42825698  0.50142724  0.39760865     0.27100
C1410       C  0.41827490  0.95504193  0.41013516     0.27100
C1411       C  0.06275010  0.51415576  0.41050470     0.27100
C1412       C  0.04405445  0.96322778  0.41276576     0.27100
C1413       C  0.47337242  0.53536336  0.40058335     0.35800
C1414       C  0.02407568  0.55166073  0.41292238     0.35800
C1415       C  0.45681324  0.91700187  0.42161437     0.35800
C1416       C  0.99937799  0.92613462  0.41975214     0.35800
C1417       C  0.39915450  0.49328409  0.38752155    -0.21700
C1418       C  0.39154571  0.96597091  0.39656422    -0.21700
C1419       C  0.06475652  0.50407785  0.44117130    -0.21700
C1420       C  0.04817278  0.97381260  0.44280061    -0.21700
C1421       C  0.47770855  0.54166484  0.43174456    -0.22800
C1422       C  0.01289711  0.54584916  0.44367806    -0.22800
C1423       C  0.46692834  0.92453712  0.45100656    -0.22800
C1424       C  0.98971468  0.93189251  0.45046030    -0.22800
C1425       C  0.44571214  0.52740809  0.38656898    -0.18100
C1426       C  0.42689478  0.92352059  0.41141330    -0.18100
C1427       C  0.02691311  0.93678379  0.40372639    -0.18100
C1428       C  0.05349265  0.54369735  0.40071600    -0.18100
H1429       H  0.38414642  0.50731674  0.37326246     0.14800
H1430       H  0.37160488  0.95237925  0.38988803     0.14800
H1431       H  0.06830654  0.51868194  0.46051968     0.14800
H1432       H  0.04602682  0.96130965  0.46501722     0.14800
H1433       H  0.46074061  0.54002559  0.45078046     0.13100
H1434       H  0.02589060  0.54475195  0.46502616     0.13100
H1435       H  0.45268914  0.92887451  0.47156333     0.13100
H1436       H  0.00251266  0.94062408  0.46972125     0.13100
H1437       H  0.46201344  0.97709078  0.41829587     0.26300
H1438       H  0.04997134  0.98644139  0.36736124     0.26300
C1439       C  0.15897416  0.93926381  0.24491363     0.42600
N1440       N  0.19508699  0.97367383  0.25243662     0.01500
C1441       C  0.29300498  0.56694013  0.15586620    -0.06400
H1442       H  0.31420714  0.93343005  0.15788516     0.07000
C1443       C  0.34165580  0.95648399  0.27131875    -0.06700
Co1444     Co  0.23012363  0.50167902  0.19477512     0.74200
N1445       N  0.28023584  0.96576064  0.17470733    -0.25900
Co1446     Co  0.31058668  0.50721445  0.19833332     0.74100
C1447       C  0.35300312  0.93537175  0.24724079     0.42700
N1448       N  0.27256605  0.98053669  0.30455935     0.01100
N1449       N  0.32660103  0.97242283  0.22590990     0.01200
N1450       N  0.24199613  0.55759956  0.15352706    -0.46700
H1451       H  0.16832922  0.94178265  0.19129996     0.07000
N1452       N  0.24975389  0.96492443  0.17472431     0.01500
N1453       N  0.33082348  0.54426883  0.22183201     0.01300
C1454       C  0.35882285  0.58498277  0.23194176     0.42900
N1455       N  0.24212902  0.98012254  0.30293491    -0.25400
C1456       C  0.18132503  0.55552522  0.20446395    -0.06300
N1457       N  0.17293428  0.95661056  0.26676539    -0.46500
N1458       N  0.34960929  0.56594588  0.20901357    -0.46700
C1459       C  0.16852529  0.57180817  0.23178740     0.42600
N1460       N  0.25534509  0.53526996  0.16923426     0.01500
N1461       N  0.24642071  0.54265710  0.30060060    -0.25400
N1462       N  0.19640972  0.96941994  0.22184820    -0.25900
N1463       N  0.27667052  0.54525774  0.30256812     0.01100
H1464       H  0.20909986  0.56136995  0.32778499     0.07000
H1465       H  0.34571018  0.57961425  0.28470700     0.07100
N1466       N  0.28547985  0.53948877  0.17095894    -0.25900
N1467       N  0.32503341  0.97768871  0.25636779    -0.25500
N1468       N  0.20260347  0.53861377  0.24687374     0.01500
C1469       C  0.26223466  0.92244141  0.15217505     0.42900
C1470       C  0.23033698  0.96042027  0.32511655    -0.06800
N1471       N  0.32716125  0.54710186  0.25244802    -0.25500
H1472       H  0.34461204  0.95550290  0.29651584     0.07100
N1473       N  0.23846522  0.93998953  0.16159563    -0.46700
H1474       H  0.20602607  0.95665027  0.33050519     0.07000
C1475       C  0.25912027  0.57594076  0.33801611     0.42700
C1476       C  0.17467894  0.94793104  0.21482420    -0.06300
Co1477     Co  0.22515498  0.50700503  0.27592438     0.73800
N1478       N  0.28239268  0.96192172  0.32750078    -0.46500
C1479       C  0.26353934  0.57904016  0.14431224     0.43000
N1480       N  0.18298433  0.55931949  0.25689039    -0.46500
Co1481     Co  0.29888348  0.01319094  0.27672248     0.73900
C1482       C  0.34258463  0.57268973  0.26069821    -0.06800
C1483       C  0.29034686  0.93971791  0.16090001    -0.06300
N1484       N  0.20249184  0.53583666  0.21605551    -0.25900
N1485       N  0.34249832  0.94700330  0.21942604    -0.46600
H1486       H  0.31565731  0.57788286  0.15478081     0.07000
C1487       C  0.23346926  0.56113003  0.32179584    -0.06800
Cl1488     Cl  0.26753816  0.50694317  0.23740013    -0.49800
C1489       C  0.25699705  0.94801863  0.34122298     0.42800
H1490       H  0.17451864  0.55702710  0.18020943     0.07000
N1491       N  0.28516466  0.56425250  0.32513419    -0.46500
C1492       C  0.37527112  0.87410902  0.35994986    -0.20100
C1493       C  0.38911304  0.88095974  0.33026121    -0.06700
C1494       C  0.41572938  0.90076836  0.32830332     0.14200
C1495       C  0.42842070  0.91155424  0.35567592    -0.20200
C1496       C  0.41478059  0.90520669  0.38517382    -0.06700
C1497       C  0.38738281  0.88691071  0.38743678     0.14100
C1498       C  0.36976658  0.88221885  0.41810140    -0.23500
H1499       H  0.35422844  0.86010349  0.36151033     0.15400
H1500       H  0.44802623  0.92729657  0.35388501     0.15500
C1501       C  0.43026019  0.91274590  0.29762442    -0.23500
H1502       H  0.36901805  0.85740728  0.42492037     0.05700
H1503       H  0.34591272  0.89059321  0.41542752     0.08900
H1504       H  0.38039622  0.89478575  0.43764103     0.08900
H1505       H  0.41339408  0.92601368  0.28387912     0.08900
H1506       H  0.43966400  0.89360848  0.28415811     0.08900
H1507       H  0.45002861  0.92876722  0.30114826     0.05700
C1508       C  0.04294040  0.55102668  0.34199546    -0.20100
C1509       C  0.06330782  0.55339413  0.36755615    -0.06700
C1510       C  0.09440948  0.56221293  0.36058290     0.14200
C1511       C  0.10339033  0.57069316  0.32964273    -0.20200
C1512       C  0.08241738  0.57011484  0.30499882    -0.06700
C1513       C  0.05203670  0.55948382  0.31107315     0.14100
C1514       C  0.02960515  0.55578704  0.28477250    -0.23500
H1515       H  0.02006782  0.54141451  0.34514100     0.15400
H1516       H  0.12706906  0.57825185  0.32474099     0.15500
C1517       C  0.11906005  0.56282358  0.38497420    -0.23500
H1518       H  0.00735581  0.54525887  0.29336165     0.05700
H1519       H  0.03939619  0.54040936  0.26682203     0.08900
H1520       H  0.02490263  0.57862767  0.27362769     0.08900
H1521       H  0.13735141  0.54637812  0.37863372     0.08900
H1522       H  0.11029325  0.55637200  0.40888975     0.08900
H1523       H  0.12949599  0.58644151  0.38557978     0.05700
C1524       C  0.44830618  0.58243708  0.31576737    -0.20100
C1525       C  0.44561886  0.56221256  0.29080939    -0.06700
C1526       C  0.44278161  0.53000165  0.29737458     0.14200
C1527       C  0.44077449  0.51925319  0.32881886    -0.20200
C1528       C  0.44221870  0.53986173  0.35383765    -0.06700
C1529       C  0.44675655  0.57184711  0.34681790     0.14100
C1530       C  0.45051025  0.59576967  0.37137252    -0.23500
H1531       H  0.45003145  0.60723062  0.31119937     0.15400
H1532       H  0.43916112  0.49454613  0.33375844     0.15500
C1533       C  0.44238858  0.50651754  0.27186929    -0.23500
H1534       H  0.43583062  0.61577724  0.36588047     0.05700
H1535       H  0.47488838  0.60415542  0.37148509     0.08900
H1536       H  0.44363559  0.58665434  0.39501520     0.08900
H1537       H  0.44590421  0.51730632  0.24805106     0.08900
H1538       H  0.41999103  0.49352668  0.27273420     0.08900
H1539       H  0.46128873  0.48996011  0.27561156     0.05700
C1540       C  0.03664938  0.94214557  0.31511027    -0.20100
C1541       C  0.06365521  0.92521560  0.31205615    -0.06700
C1542       C  0.07361442  0.90682048  0.33777252     0.14200
C1543       C  0.05782064  0.90792697  0.36671378    -0.20200
C1544       C  0.03287032  0.92747822  0.37084799    -0.06700
C1545       C  0.02121081  0.94393073  0.34430062     0.14100
C1546       C  0.99575271  0.96707838  0.34667580    -0.23500
H1547       H  0.02846730  0.95528361  0.29496189     0.15400
H1548       H  0.06653576  0.89535903  0.38696842     0.15500
C1549       C  0.10130606  0.88645711  0.33503844    -0.23500
H1550       H  0.00483737  0.99059483  0.33994630     0.05700
H1551       H  0.98542934  0.96802860  0.37061688     0.08900
H1552       H  0.97747040  0.96144493  0.32992412     0.08900
H1553       H  0.12235984  0.90085244  0.32976726     0.08900
H1554       H  0.09804232  0.86985651  0.31597352     0.08900
H1555       H  0.10512118  0.87292755  0.35716459     0.05700
C1556       C  0.17460975  0.92931777  0.49295351    -0.20100
C1557       C  0.14796162  0.91804886  0.47829314    -0.06700
C1558       C  0.15078123  0.90546249  0.44816469     0.14200
C1559       C  0.17902181  0.90878164  0.43161813    -0.20200
C1560       C  0.20438693  0.92433795  0.44456024    -0.06700
C1561       C  0.20268575  0.93327926  0.47619892     0.14100
C1562       C  0.22961693  0.94895611  0.49158001    -0.23500
H1563       H  0.17235583  0.93894680  0.51615279     0.15400
H1564       H  0.18091344  0.90020358  0.40794596     0.15500
C1565       C  0.12341994  0.89217591  0.43159080    -0.23500
H1566       H  0.22354772  0.95620020  0.51573828     0.05700
H1567       H  0.23699251  0.96994659  0.47751091     0.08900
H1568       H  0.24922384  0.93301602  0.49339793     0.08900
H1569       H  0.11881160  0.90661943  0.41026076     0.08900
H1570       H  0.10232564  0.89123509  0.44686315     0.08900
H1571       H  0.12839907  0.86827406  0.42442354     0.05700
C1572       C  0.18387081  0.54739168  0.49017195    -0.20100
C1573       C  0.15533309  0.56097795  0.48343682    -0.06700
C1574       C  0.15450921  0.58319629  0.45867079     0.14200
C1575       C  0.18021107  0.58851072  0.43880855    -0.20200
C1576       C  0.20787251  0.57344780  0.44410948    -0.06700
C1577       C  0.21029471  0.55372166  0.47091817     0.14100
C1578       C  0.24031752  0.53875030  0.47851449    -0.23500
H1579       H  0.18474072  0.52988701  0.50887451     0.15400
H1580       H  0.17907602  0.60537039  0.41949992     0.15500
C1581       C  0.12701302  0.60266302  0.45444265    -0.23500
H1582       H  0.23816636  0.52368052  0.50008234     0.05700
H1583       H  0.25825007  0.55687048  0.48243064     0.08900
H1584       H  0.24777602  0.52435522  0.45864433     0.08900
H1585       H  0.10580410  0.58803107  0.45289518     0.08900
H1586       H  0.12898660  0.61814464  0.43316439     0.08900
H1587       H  0.12619617  0.61732913  0.47532682     0.05700
C1588       C  0.16485420  0.54588235  0.09355488    -0.20100
C1589       C  0.13588178  0.54696117  0.10823960    -0.06700
C1590       C  0.13003182  0.57010097  0.13015591     0.14200
C1591       C  0.15142194  0.59490806  0.13234274    -0.20200
C1592       C  0.17817969  0.59656184  0.11309106    -0.06700
C1593       C  0.18519679  0.57121795  0.09376896     0.14100
C1594       C  0.21353496  0.57056334  0.07251159    -0.23500
H1595       H  0.17006717  0.52642074  0.07892587     0.15400
H1596       H  0.14729874  0.61296843  0.14897155     0.15500
C1597       C  0.10180294  0.56830110  0.15149386    -0.23500
H1598       H  0.21468066  0.54875657  0.05940958     0.05700
H1599       H  0.23475213  0.57212566  0.08634286     0.08900
H1600       H  0.21315074  0.58980746  0.05472332     0.08900
H1601       H  0.10300726  0.54787535  0.16771682     0.08900
H1602       H  0.08052310  0.56615745  0.13764986     0.08900
H1603       H  0.10003794  0.58912897  0.16605370     0.05700
C1604       C  0.15349562  0.91474068  0.09330483    -0.20100
C1605       C  0.12564555  0.90477540  0.10736782    -0.06700
C1606       C  0.12495922  0.88009787  0.12961954     0.14200
C1607       C  0.15266662  0.86516123  0.13679052    -0.20200
C1608       C  0.18065030  0.87491498  0.12197968    -0.06700
C1609       C  0.18084943  0.90029540  0.09984709     0.14100
C1610       C  0.20928247  0.91301880  0.08244080    -0.23500
H1611       H  0.15352007  0.93401619  0.07636728     0.15400
H1612       H  0.15258736  0.84625337  0.15407430     0.15500
C1613       C  0.09527273  0.87022775  0.14579251    -0.23500
H1614       H  0.20400315  0.93263223  0.06614823     0.05700
H1615       H  0.21948055  0.89513643  0.06767378     0.08900
H1616       H  0.22606491  0.92234258  0.09900855     0.08900
H1617       H  0.09843842  0.84946780  0.16121966     0.08900
H1618       H  0.07782217  0.86494179  0.12793157     0.08900
H1619       H  0.08673939  0.88930602  0.16032881     0.05700
C1620       C  0.38204354  0.67676688  0.42239679    -0.20100
C1621       C  0.37841039  0.66975265  0.39062135    -0.06700
C1622       C  0.37764914  0.63843977  0.38218265     0.14200
C1623       C  0.38442668  0.61544785  0.40521261    -0.20200
C1624       C  0.39129646  0.62361225  0.43619697    -0.06700
C1625       C  0.38574076  0.65397443  0.44560168     0.14100
C1626       C  0.38972783  0.66346117  0.47923575    -0.23500
H1627       H  0.38611552  0.70034948  0.42875681     0.15400
H1628       H  0.38767998  0.59181353  0.39827029     0.15500
C1629       C  0.37199364  0.62966770  0.34879267    -0.23500
H1630       H  0.38409357  0.68814642  0.48236630     0.05700
H1631       H  0.41390563  0.66029327  0.48651573     0.08900
H1632       H  0.37400656  0.64923267  0.49499853     0.08900
H1633       H  0.39000795  0.64043564  0.33282860     0.08900
H1634       H  0.34899502  0.63781848  0.34162947     0.08900
H1635       H  0.37248738  0.60419925  0.34614004     0.05700
C1636       C  0.03796296  0.68882723  0.45926839    -0.20100
C1637       C  0.03928744  0.66048975  0.44404201    -0.06700
C1638       C  0.05836208  0.65724005  0.41732457     0.14200
C1639       C  0.07620087  0.68268249  0.40644383    -0.20200
C1640       C  0.07446289  0.71121261  0.42133100    -0.06700
C1641       C  0.05503102  0.71459198  0.44773226     0.14100
C1642       C  0.05164836  0.74543812  0.46279825    -0.23500
H1643       H  0.02300499  0.69076727  0.47977865     0.15400
H1644       H  0.09095450  0.68067869  0.38571248     0.15500
C1645       C  0.05949526  0.62722428  0.40031222    -0.23500
H1646       H  0.03494284  0.74407962  0.48290684     0.05700
H1647       H  0.04318866  0.76260429  0.44525751     0.08900
H1648       H  0.07429254  0.75354290  0.47152333     0.08900
H1649       H  0.03618384  0.62104956  0.39184198     0.08900
H1650       H  0.06723986  0.60856760  0.41652462     0.08900
H1651       H  0.07566290  0.62875318  0.37968713     0.05700
C1652       C  0.41338025  0.64194506  0.06091494    -0.20100
C1653       C  0.40720029  0.61180575  0.07229841    -0.06700
C1654       C  0.38859844  0.60682480  0.09973903     0.14200
C1655       C  0.37776698  0.63266830  0.11593522    -0.20200
C1656       C  0.38620332  0.66292603  0.10553488    -0.06700
C1657       C  0.40433914  0.66742692  0.07750964     0.14100
C1658       C  0.41604646  0.69878562  0.06530048    -0.23500
H1659       H  0.42810773  0.64544242  0.04010321     0.15400
H1660       H  0.36371318  0.62920055  0.13717928     0.15500
C1661       C  0.38057225  0.57483919  0.11249351    -0.23500
H1662       H  0.43096863  0.69712738  0.04387739     0.05700
H1663       H  0.43026396  0.71015386  0.08316338     0.08900
H1664       H  0.39662441  0.71341555  0.05857231     0.08900
H1665       H  0.39066745  0.55662618  0.09784523     0.08900
H1666       H  0.35513009  0.57138335  0.11298644     0.08900
H1667       H  0.38924156  0.57201723  0.13677200     0.05700
C1668       C  0.02455325  0.65916533  0.05075144    -0.20100
C1669       C  0.04206561  0.63439502  0.06234015    -0.06700
C1670       C  0.07152316  0.64061425  0.07418956     0.14200
C1671       C  0.08395160  0.67066007  0.07169461    -0.20200
C1672       C  0.06717180  0.69504907  0.05858842    -0.06700
C1673       C  0.03652738  0.68954915  0.04940434     0.14100
C1674       C  0.01674328  0.71542661  0.03767360    -0.23500
H1675       H  0.00182405  0.65443998  0.04159404     0.15400
H1676       H  0.10681422  0.67522821  0.08063348     0.15500
C1677       C  0.09026286  0.61611042  0.08962150    -0.23500
H1678       H  0.99482083  0.70656993  0.02785474     0.05700
H1679       H  0.02948630  0.72913256  0.01906689     0.08900
H1680       H  0.01080473  0.73082535  0.05719951     0.08900
H1681       H  0.11286774  0.61437422  0.07710779     0.08900
H1682       H  0.07843827  0.59314192  0.08982725     0.08900
H1683       H  0.09426357  0.62269496  0.11425346     0.05700
C1684       C  0.25101687  0.66607250  0.55858741     0.42600
N1685       N  0.24458531  0.69548984  0.51730509     0.01500
C1686       C  0.35237513  0.78340488  0.92997655    -0.06400
H1687       H  0.34257817  0.80548828  0.56215140     0.07000
C1688       C  0.23251361  0.83811948  0.54125120    -0.06700
Co1689     Co  0.30693467  0.71784802  0.98933761     0.74200
N1690       N  0.32459915  0.77506078  0.52661727    -0.25900
Co1691     Co  0.30527340  0.80162955  0.48987501     0.74100
C1692       C  0.25713517  0.84728095  0.56271918     0.42700
N1693       N  0.19546200  0.77436041  0.51168738     0.01100
N1694       N  0.27626071  0.82346601  0.52271844     0.01200
N1695       N  0.34964875  0.73174230  0.93425407    -0.46700
H1696       H  0.30388172  0.67259512  0.55481401     0.07000
N1697       N  0.32299540  0.74466631  0.52527413     0.01500
N1698       N  0.28870790  0.82424158  0.95435573     0.01300
C1699       C  0.27980033  0.85762189  0.91690587     0.42900
N1700       N  0.19564044  0.74384464  0.51103000    -0.25400
C1701       C  0.29644437  0.67218535  0.93314618    -0.06300
N1702       N  0.22968304  0.67852515  0.53938062    -0.46500
N1703       N  0.30172219  0.84660356  0.93628440    -0.46700
C1704       C  0.26937987  0.66096307  0.91595740     0.42600
N1705       N  0.33465936  0.74403451  0.95776594     0.01500
N1706       N  0.20781753  0.74397553  0.94405312    -0.25400
N1707       N  0.27475437  0.69534041  0.52078750    -0.25900
N1708       N  0.20700464  0.77436413  0.94414190     0.01100
H1709       H  0.18286635  0.70987512  0.91831055     0.07000
H1710       H  0.22864192  0.84281335  0.91704427     0.07100
N1711       N  0.33571749  0.77456841  0.95645675    -0.25900
N1712       N  0.24619124  0.82313089  0.51791199    -0.25500
N1713       N  0.25600797  0.69619896  0.94853537     0.01500
C1714       C  0.34469635  0.75234931  0.56962996     0.42900
C1715       C  0.17222671  0.73247707  0.52928520    -0.06800
N1716       N  0.25897526  0.82086524  0.94921174    -0.25500
H1717       H  0.20789301  0.84129025  0.54346055     0.07100
N1718       N  0.33469814  0.73068641  0.54991257    -0.46700
H1719       H  0.16533815  0.70830981  0.53158011     0.07000
C1720       C  0.17490090  0.76146040  0.90755729     0.42700
C1721       C  0.28112759  0.67719808  0.54612350    -0.06300
Co1722     Co  0.22805914  0.71860930  0.98060893     0.73800
N1723       N  0.17222200  0.78467156  0.52922237    -0.46500
C1724       C  0.36192917  0.75442484  0.91516311     0.43000
N1725       N  0.24550567  0.67718840  0.92729652    -0.46500
Co1726     Co  0.22496838  0.80010256  0.48029565     0.73900
C1727       C  0.25195876  0.83870112  0.92448482    -0.06800
C1728       C  0.33840659  0.78236340  0.55394656    -0.06300
N1729       N  0.28592546  0.69399476  0.95255444    -0.25900
N1730       N  0.28374631  0.83712505  0.54947993    -0.46600
H1731       H  0.35573035  0.80679573  0.92106448     0.07000
C1732       C  0.18920289  0.73389671  0.92153161    -0.06800
Cl1733     Cl  0.26445488  0.76075722  0.48489975    -0.49800
C1734       C  0.15674820  0.75948671  0.54175987     0.42800
H1735       H  0.31956112  0.66325424  0.93303383     0.07000
N1736       N  0.18689419  0.78555052  0.92366075    -0.46500
C1737       C  0.12448983  0.75935721  0.55484153     0.03300
C1738       C  0.10278865  0.73851721  0.54247261    -0.12900
C1739       C  0.07344205  0.73406588  0.55664448     0.00800
C1740       C  0.06412667  0.75378614  0.58005777    -0.11400
C1741       C  0.08612382  0.77121316  0.59585968     0.03300
C1742       C  0.11632192  0.77500406  0.58261821    -0.10800
H1743       H  0.10973508  0.72319035  0.52400132     0.08900
H1744       H  0.04166377  0.74948597  0.59132476     0.06400
H1745       H  0.13385816  0.78754013  0.59518294     0.06300
C1746       C  0.35854587  0.74253898  0.60005646     0.03300
C1747       C  0.35093431  0.71173842  0.60927919    -0.12900
C1748       C  0.37327549  0.69317096  0.62215106     0.00800
C1749       C  0.39758829  0.70722524  0.63753040    -0.11400
C1750       C  0.40409205  0.73922685  0.63336910     0.03300
C1751       C  0.38487427  0.75699080  0.61329278    -0.10800
H1752       H  0.33150782  0.69996984  0.59881469     0.08900
H1753       H  0.41412262  0.69218407  0.64856194     0.06400
H1754       H  0.39192364  0.78024483  0.60575029     0.06300
C1755       C  0.10090149  0.76107917  0.85809058     0.03300
C1756       C  0.08037577  0.74855198  0.88090977    -0.12900
C1757       C  0.09083322  0.73841164  0.90994592     0.00800
C1758       C  0.12078314  0.74581392  0.91889467    -0.11400
C1759       C  0.14200920  0.76020861  0.89749949     0.03300
C1760       C  0.13216032  0.76719347  0.86630441    -0.10800
H1761       H  0.05719623  0.74178457  0.87422010     0.08900
H1762       H  0.12856434  0.73700147  0.94144991     0.06400
H1763       H  0.14870688  0.77568973  0.84851855     0.06300
C1764       C  0.41877300  0.73475375  0.84905134     0.03300
C1765       C  0.40779649  0.70362202  0.84951016    -0.12900
C1766       C  0.38000305  0.69481550  0.86477365     0.00800
C1767       C  0.36011570  0.71821988  0.87275345    -0.11400
C1768       C  0.37334086  0.74618164  0.88274878     0.03300
C1769       C  0.40246103  0.75574819  0.86865930    -0.10800
H1770       H  0.42215952  0.68532505  0.84127674     0.08900
H1771       H  0.33772077  0.71078329  0.88244445     0.06400
H1772       H  0.41311254  0.77763396  0.87456391     0.06300
N1773       N  0.47976903  0.60745217  0.95076651    -0.36400
N1774       N  0.01471482  0.60779130  0.50728987    -0.57000
N1775       N  0.47061318  0.58425081  0.55869871    -0.36400
N1776       N  0.42603459  0.58884953  0.50643054    -0.57000
C1777       C  0.99917543  0.61986550  0.93783167     0.27100
C1778       C  0.45336521  0.61214781  0.93531828     0.27100
C1779       C  0.99568064  0.59917499  0.57392360     0.27100
C1780       C  0.44379763  0.58472429  0.57540441     0.27100
C1781       C  0.04086127  0.60886005  0.97479474     0.35800
C1782       C  0.03398749  0.60233089  0.53107852     0.35800
C1783       C  0.41602803  0.58934556  0.97618553     0.35800
C1784       C  0.40814882  0.57747137  0.53063765     0.35800
C1785       C  0.98722455  0.63604616  0.91259652    -0.21700
C1786       C  0.45997869  0.63026229  0.90829578    -0.21700
C1787       C  0.98409440  0.60746306  0.60287882    -0.21700
C1788       C  0.44960123  0.59461615  0.60567663    -0.21700
C1789       C  0.07150079  0.60872680  0.98302065    -0.22800
C1790       C  0.06416096  0.60748653  0.52038369    -0.22800
C1791       C  0.38642055  0.58124635  0.98668054    -0.22800
C1792       C  0.37870441  0.57117972  0.52005771    -0.22800
C1793       C  0.02945484  0.62439335  0.94837344    -0.18100
C1794       C  0.42301063  0.60369904  0.94640014    -0.18100
C1795       C  0.41398036  0.58453734  0.56217271    -0.18100
C1796       C  0.02449515  0.60986032  0.56145593    -0.18100
H1797       H  0.99905157  0.65279789  0.89696162     0.14800
H1798       H  0.44407812  0.63887631  0.89114411     0.14800
H1799       H  0.99599528  0.62025923  0.62067289     0.14800
H1800       H  0.43289605  0.59850128  0.62432626     0.14800
H1801       H  0.09125666  0.61734842  0.96924786     0.13100
H1802       H  0.08471765  0.60832871  0.53407576     0.13100
H1803       H  0.36558788  0.58156709  0.97308917     0.13100
H1804       H  0.35850147  0.56492014  0.53443172     0.13100
H1805       H  0.48173505  0.59482262  0.97168883     0.26300
H1806       H  0.47302127  0.57914048  0.53504069     0.26300
C1807       C  0.08875201  0.66169750  0.72756536     0.42600
N1808       N  0.05649844  0.69685384  0.74159244     0.01500
C1809       C  0.44520370  0.78057071  0.65602677    -0.06400
H1810       H  0.05794856  0.82158412  0.63573068     0.07000
C1811       C  0.06454535  0.83739092  0.76175817    -0.06700
Co1812     Co  0.51696648  0.72385624  0.68734914     0.74200
N1813       N  0.04202019  0.78369958  0.66618074    -0.25900
Co1814     Co  0.50464401  0.80374650  0.69182656     0.74100
C1815       C  0.07609048  0.85708859  0.73534104     0.42700
N1816       N  0.04819050  0.77017018  0.79761999     0.01100
N1817       N  0.03851734  0.82699523  0.72060660     0.01200
N1818       N  0.45658046  0.73015397  0.65317661    -0.46700
H1819       H  0.07502976  0.66819916  0.67566781     0.07000
N1820       N  0.04830580  0.75393478  0.66659510     0.01500
N1821       N  0.47039219  0.82093140  0.72274439     0.01300
C1822       C  0.43238645  0.84456411  0.74496045     0.42900
N1823       N  0.05269724  0.74046972  0.79444097    -0.25400
C1824       C  0.46604664  0.67308913  0.70304102    -0.06300
N1825       N  0.07618962  0.67636993  0.75219871    -0.46500
N1826       N  0.44492085  0.83701021  0.71657988    -0.46700
C1827       C  0.45429186  0.65695917  0.73158014     0.42600
N1828       N  0.47863522  0.74548585  0.66737942     0.01500
N1829       N  0.48838081  0.73487737  0.79751363    -0.25400
N1830       N  0.05476714  0.69743352  0.71069124    -0.25900
N1831       N  0.48352603  0.76470139  0.80019273     0.01100
H1832       H  0.46730198  0.69400838  0.81847933     0.07000
H1833       H  0.45178728  0.83352423  0.79410244     0.07100
N1834       N  0.47265263  0.77518185  0.66963247    -0.25900
N1835       N  0.04096797  0.82080820  0.75099594    -0.25500
N1836       N  0.48939854  0.69080537  0.74375986     0.01500
C1837       C  0.07916057  0.77370921  0.62993896     0.42900
C1838       C  0.07780387  0.73299080  0.81085848    -0.06800
N1839       N  0.47507839  0.81753792  0.75325036    -0.25500
H1840       H  0.07086317  0.83832902  0.78619036     0.07100
N1841       N  0.07007143  0.74732266  0.64579742    -0.46700
H1842       H  0.08615288  0.70976114  0.81423840     0.07000
C1843       C  0.44875111  0.74203734  0.83110785     0.42700
C1844       C  0.07415696  0.67585304  0.69966564    -0.06300
Co1845     Co  0.52276480  0.71741552  0.76789545     0.73800
N1846       N  0.06847107  0.78327998  0.81641954    -0.46500
C1847       C  0.43448998  0.75024117  0.64516341     0.43000
N1848       N  0.47046038  0.66880045  0.75570768    -0.46500
Co1849     Co  0.51304042  0.79594841  0.77346179     0.73900
C1850       C  0.45289586  0.83172200  0.76877576    -0.06800
C1851       C  0.05995033  0.79781722  0.64356963    -0.09300
N1852       N  0.48746199  0.69344377  0.71286071    -0.25900
N1853       N  0.05815186  0.84950981  0.71065857    -0.46600
H1854       H  0.43396874  0.80263685  0.65454523     0.07000
C1855       C  0.46817501  0.71895798  0.81616312    -0.06800
Cl1856     Cl  0.51420851  0.76015682  0.73020203    -0.49800
C1857       C  0.08891309  0.76166158  0.82554107     0.42800
H1858       H  0.46057644  0.66897146  0.67879639     0.07000
N1859       N  0.45974924  0.77009625  0.81977902    -0.46500
C1860       C  0.25139989  0.85703163  0.59623968     0.03300
C1861       C  0.22204020  0.84833393  0.60873079    -0.12900
C1862       C  0.20881479  0.86481134  0.63276470     0.00800
C1863       C  0.22813718  0.88004826  0.65294606    -0.11400
C1864       C  0.25658346  0.89233526  0.64137190     0.03300
C1865       C  0.26882042  0.88023150  0.61251366    -0.10800
H1866       H  0.20666234  0.83349477  0.59591980     0.08900
H1867       H  0.21720972  0.88992873  0.67342787     0.06400
H1868       H  0.28921935  0.89086280  0.60136893     0.06300
C1869       C  0.24276840  0.64818008  0.58829141     0.03300
C1870       C  0.21116591  0.64603993  0.59673645    -0.12900
C1871       C  0.20130012  0.62818220  0.62292249     0.00800
C1872       C  0.22305383  0.62019907  0.64502500    -0.11400
C1873       C  0.25277504  0.61338161  0.63382941     0.03300
C1874       C  0.26370268  0.62956443  0.60587498    -0.10800
H1875       H  0.19389240  0.65426779  0.58065043     0.08900
H1876       H  0.21436763  0.60848414  0.66643186     0.06400
H1877       H  0.28660071  0.62545361  0.59646724     0.06300
C1878       C  0.26316212  0.62842085  0.90753686     0.03300
C1879       C  0.24401903  0.61098568  0.92872009    -0.12900
C1880       C  0.22912539  0.58391503  0.91970670     0.00800
C1881       C  0.23512040  0.57281806  0.88946340    -0.11400
C1882       C  0.25553691  0.58882618  0.86800141     0.03300
C1883       C  0.26942055  0.61703692  0.87720262    -0.10800
H1884       H  0.23802455  0.62032279  0.95141188     0.08900
H1885       H  0.22287341  0.55216657  0.88228381     0.06400
H1886       H  0.28300616  0.63098603  0.86026721     0.06300
C1887       C  0.25891478  0.93199325  0.87696370     0.03300
C1888       C  0.23477426  0.93881060  0.89828843    -0.12900
C1889       C  0.23203729  0.92328000  0.92759595     0.00800
C1890       C  0.25461249  0.90272851  0.93646223    -0.11400
C1891       C  0.27462419  0.89111400  0.91350479     0.03300
C1892       C  0.27816511  0.90695633  0.88418614    -0.10800
H1893       H  0.21727251  0.95512865  0.89167315     0.08900
H1894       H  0.25151133  0.89020773  0.95885822     0.06400
H1895       H  0.29340782  0.89810909  0.86620037     0.06300
N1896       N  0.12075739  0.55430584  0.54710177    -0.36400
N1897       N  0.08756087  0.98333584  0.59447388    -0.57000
N1898       N  0.10028064  0.94066744  0.54258909    -0.36400
N1899       N  0.09595207  0.97690986  0.98543560    -0.57000
C1900       C  0.10032451  0.54400112  0.57002907     0.27100
C1901       C  0.10721204  0.53108575  0.01450751     0.27100
C1902       C  0.09331171  0.92121115  0.56743625     0.27100
C1903       C  0.10007649  0.91393503  0.01333136     0.27100
C1904       C  0.10182633  0.50707957  0.61395934     0.35800
C1905       C  0.09394433  0.95795407  0.61193134     0.35800
C1906       C  0.12451659  0.49671927  0.97451940     0.35800
C1907       C  0.10418843  0.95231269  0.96897311     0.35800
C1908       C  0.07353357  0.53338234  0.55670780    -0.21700
C1909       C  0.07901508  0.51635111  0.02202869    -0.21700
C1910       C  0.09258828  0.89095877  0.55722136    -0.21700
C1911       C  0.09740116  0.88311676  0.02258690    -0.21700
C1912       C  0.11058210  0.49591787  0.64317888    -0.22800
C1913       C  0.10345726  0.96650260  0.64153685    -0.22800
C1914       C  0.13862329  0.48811276  0.94671821    -0.22800
C1915       C  0.11448545  0.96186144  0.93897549    -0.22800
C1916       C  0.10811325  0.53727537  0.60157257    -0.18100
C1917       C  0.12443587  0.52671477  0.98633660    -0.18100
C1918       C  0.11203384  0.92406561  0.98363117    -0.18100
C1919       C  0.09845188  0.92845619  0.59927871    -0.18100
H1920       H  0.05353773  0.52289126  0.56877492     0.14800
H1921       H  0.06432644  0.50312090  0.00707359     0.14800
H1922       H  0.09019144  0.87009180  0.57181044     0.14800
H1923       H  0.10129043  0.86331207  0.00812772     0.14800
H1924       H  0.11997969  0.50906932  0.66216553     0.13100
H1925       H  0.11186722  0.95146585  0.66010830     0.13100
H1926       H  0.14974384  0.50262083  0.92853951     0.13100
H1927       H  0.12429604  0.94772843  0.92089652     0.13100
H1928       H  0.14357243  0.56159483  0.54914598     0.26300
H1929       H  0.10604346  0.96407096  0.54390602     0.26300
C1930       C  0.08652263  0.88910815  0.74222911     0.03300
C1931       C  0.06770944  0.90359684  0.76414568    -0.12900
C1932       C  0.08012062  0.92400597  0.78531211     0.00800
C1933       C  0.11036698  0.93573080  0.78010797    -0.11400
C1934       C  0.12885597  0.92530865  0.75480162     0.03300
C1935       C  0.11709855  0.90070747  0.73662811    -0.10800
H1936       H  0.04436822  0.89466907  0.76859160     0.08900
H1937       H  0.11956092  0.95238897  0.79621599     0.06400
H1938       H  0.13202623  0.88966500  0.71978156     0.06300
C1939       C  0.39423045  0.59027266  0.72966867     0.03300
C1940       C  0.41068067  0.56795201  0.74612597    -0.12900
C1941       C  0.43785018  0.57597912  0.76083701     0.00800
C1942       C  0.45381066  0.60292999  0.75100939    -0.11400
C1943       C  0.43891708  0.62588336  0.73348240     0.03300
C1944       C  0.40838225  0.61979364  0.72311091    -0.10800
H1945       H  0.39908421  0.54621366  0.75291339     0.08900
H1946       H  0.47603070  0.60791001  0.76096840     0.06400
H1947       H  0.39543371  0.63802495  0.71190724     0.06300
C1948       C  0.09718170  0.62859641  0.73261206     0.03300
C1949       C  0.12644834  0.61673162  0.72423380    -0.12900
C1950       C  0.13610035  0.58847690  0.73820272     0.00800
C1951       C  0.11766538  0.57492683  0.76271227    -0.11400
C1952       C  0.08838823  0.58605218  0.77133861     0.03300
C1953       C  0.07744741  0.61095680  0.75329172    -0.10800
H1954       H  0.14211141  0.63012421  0.70880382     0.08900
H1955       H  0.12740114  0.55612016  0.77613897     0.06400
H1956       H  0.05425443  0.61866250  0.75683821     0.06300
C1957       C  0.36914565  0.90574597  0.75950537     0.03300
C1958       C  0.36316845  0.89530445  0.79081062    -0.12900
C1959       C  0.37867123  0.87059417  0.80371018     0.00800
C1960       C  0.39099202  0.84938928  0.78359220    -0.11400
C1961       C  0.40212544  0.85947385  0.75365039     0.03300
C1962       C  0.39038478  0.88811103  0.74086308    -0.10800
H1963       H  0.35031373  0.90886420  0.80725322     0.08900
H1964       H  0.39941331  0.82832868  0.79445855     0.06400
H1965       H  0.39937061  0.89758881  0.71861135     0.06300
N1966       N  0.44642620  0.96975284  0.91375868    -0.36400
N1967       N  0.48981945  0.54345380  0.88201608    -0.57000
N1968       N  0.02852477  0.99540099  0.88365669    -0.36400
N1969       N  0.49167126  0.91030152  0.90199952    -0.57000
C1970       C  0.42058673  0.49893229  0.90005945     0.27100
C1971       C  0.42731439  0.94475491  0.91173664     0.27100
C1972       C  0.05889026  0.50998764  0.90955279     0.27100
C1973       C  0.02584608  0.97247609  0.90549741     0.27100
C1974       C  0.46458573  0.53495953  0.89963287     0.35800
C1975       C  0.01829752  0.54391405  0.90720757     0.35800
C1976       C  0.46788555  0.90861078  0.92297028     0.35800
C1977       C  0.98016466  0.94014843  0.91224518     0.35800
C1978       C  0.39056092  0.49022079  0.89361423    -0.21700
C1979       C  0.39991978  0.95394408  0.89810445    -0.21700
C1980       C  0.06219226  0.50240912  0.94090231    -0.21700
C1981       C  0.03374094  0.98361294  0.93453207    -0.21700
C1982       C  0.47048289  0.53624191  0.93120736    -0.22800
C1983       C  0.00662808  0.53910187  0.93784907    -0.22800
C1984       C  0.47833389  0.91397762  0.95273407    -0.22800
C1985       C  0.97111451  0.95044036  0.94175828    -0.22800
C1986       C  0.43699760  0.52455239  0.88648405    -0.18100
C1987       C  0.43758993  0.91370788  0.91342361    -0.18100
C1988       C  0.01035107  0.94473627  0.89882740    -0.18100
C1989       C  0.04905388  0.53847504  0.89724667    -0.18100
H1990       H  0.37389961  0.50384141  0.88102896     0.14800
H1991       H  0.38075751  0.93921578  0.89155320     0.14800
H1992       H  0.06561488  0.51889580  0.95897881     0.14800
H1993       H  0.03382519  0.97107557  0.95687269     0.14800
H1994       H  0.45476682  0.53062926  0.95074664     0.13100
H1995       H  0.01906097  0.54003202  0.95955044     0.13100
H1996       H  0.46448354  0.91593486  0.97402653     0.13100
H1997       H  0.98539200  0.95610835  0.96128485     0.13100
H1998       H  0.46946155  0.96953232  0.92043362     0.26300
H1999       H  0.02138068  0.99498277  0.86040350     0.26300
C2000       C  0.16062826  0.93930346  0.74945480     0.42600
N2001       N  0.19741988  0.97293159  0.75705956     0.01500
C2002       C  0.29102603  0.56806422  0.65522418    -0.06400
H2003       H  0.31568671  0.93427836  0.66018470     0.07000
C2004       C  0.34557033  0.95884091  0.77561685    -0.06700
Co2005     Co  0.22705811  0.50376995  0.69294260     0.74200
N2006       N  0.28207889  0.96623150  0.67862178    -0.25900
Co2007     Co  0.30799829  0.50661782  0.69541097     0.74100
C2008       C  0.35711753  0.93772104  0.75167077     0.42700
N2009       N  0.27550290  0.98065624  0.80910503     0.01100
N2010       N  0.32906349  0.97345040  0.73030805     0.01200
N2011       N  0.23997924  0.56015826  0.65201895    -0.46700
H2012       H  0.16925402  0.94282081  0.69571322     0.07000
N2013       N  0.25156803  0.96574748  0.67854633     0.01500
N2014       N  0.33041477  0.54335925  0.71801515     0.01300
C2015       C  0.36075525  0.58278423  0.72738168     0.42900
N2016       N  0.24510314  0.97943638  0.80705284    -0.25400
C2017       C  0.17929195  0.55888846  0.70458679    -0.06300
N2018       N  0.17517677  0.95597614  0.77141003    -0.46500
N2019       N  0.35074093  0.56352731  0.70490534    -0.46700
C2020       C  0.16717130  0.57454968  0.73276254     0.42600
N2021       N  0.25271438  0.53680240  0.66688116     0.01500
N2022       N  0.24581761  0.54440865  0.79772105    -0.25400
N2023       N  0.19824812  0.96939929  0.72634987    -0.25900
N2024       N  0.27608980  0.54680529  0.79960930     0.01100
H2025       H  0.20850380  0.56341494  0.82446999     0.07000
H2026       H  0.34760132  0.57881196  0.78019274     0.07100
N2027       N  0.28297911  0.54001593  0.66871051    -0.25900
N2028       N  0.32786429  0.97908493  0.76070335    -0.25500
N2029       N  0.20096133  0.54041688  0.74600576     0.01500
C2030       C  0.26353209  0.92401692  0.65402069     0.42900
C2031       C  0.23354225  0.95942799  0.82897962    -0.06800
N2032       N  0.32682285  0.54707323  0.74853663    -0.25500
H2033       H  0.34911002  0.95863679  0.80071161     0.07100
N2034       N  0.24008330  0.94160413  0.66421421    -0.46700
H2035       H  0.20925454  0.95510401  0.83403867     0.07000
C2036       C  0.25847075  0.57745528  0.83514721     0.42700
C2037       C  0.17610672  0.94833081  0.71926251    -0.06300
Co2038     Co  0.22399812  0.50867768  0.77414154     0.73800
N2039       N  0.28552292  0.96242787  0.83230661    -0.46500
C2040       C  0.26214588  0.58129335  0.64352761     0.43000
N2041       N  0.18185389  0.56108747  0.75709167    -0.46500
Co2042     Co  0.30098812  0.01381382  0.78122136     0.73900
C2043       C  0.34379592  0.57188153  0.75629792    -0.06800
C2044       C  0.29188324  0.94055957  0.66373965    -0.06300
N2045       N  0.20033437  0.53842973  0.71512974    -0.25900
N2046       N  0.34576506  0.94856514  0.72390326    -0.46600
H2047       H  0.31348026  0.57909062  0.65623879     0.07000
C2048       C  0.23289371  0.56311285  0.81858537    -0.06800
Cl2049     Cl  0.26563910  0.50805359  0.73496583    -0.49800
C2050       C  0.26022330  0.94793046  0.84562653     0.42800
H2051       H  0.17203304  0.56120410  0.68053487     0.07000
N2052       N  0.28457800  0.56563162  0.82236743    -0.46500
C2053       C  0.38393770  0.86762311  0.86228238    -0.20100
C2054       C  0.39607094  0.87683579  0.83250225    -0.06700
C2055       C  0.42404556  0.89461007  0.83033854     0.14200
C2056       C  0.43916446  0.90183181  0.85763612    -0.20200
C2057       C  0.42620315  0.89476424  0.88734804    -0.06700
C2058       C  0.39846755  0.87716097  0.88987793     0.14100
C2059       C  0.38348782  0.87036293  0.92156395    -0.23500
H2060       H  0.36233985  0.85453473  0.86392239     0.15400
H2061       H  0.45952262  0.91650630  0.85572991     0.15500
C2062       C  0.43719376  0.90890039  0.79992908    -0.23500
H2063       H  0.36079419  0.85857489  0.91930793     0.05700
H2064       H  0.37946343  0.89223257  0.93391222     0.08900
H2065       H  0.39864923  0.85547931  0.93594584     0.08900
H2066       H  0.42042465  0.92474085  0.78916628     0.08900
H2067       H  0.44389870  0.89096702  0.78352103     0.08900
H2068       H  0.45848084  0.92290737  0.80348457     0.05700
C2069       C  0.04688672  0.57795179  0.85289438    -0.20100
C2070       C  0.05872482  0.54965611  0.86408368    -0.06700
C2071       C  0.07834984  0.53373752  0.84287465     0.14200
C2072       C  0.07946030  0.54290061  0.81102667    -0.20200
C2073       C  0.07203601  0.57309444  0.80106303    -0.06700
C2074       C  0.05486995  0.59093406  0.82291759     0.14100
C2075       C  0.04537522  0.62385148  0.81646719    -0.23500
H2076       H  0.03255019  0.59111810  0.86858717     0.15400
H2077       H  0.09062175  0.52764959  0.79477679     0.15500
C2078       C  0.10216987  0.51022744  0.85202822    -0.23500
H2079       H  0.03527942  0.63444635  0.83774364     0.05700
H2080       H  0.02712236  0.62449337  0.79863550     0.08900
H2081       H  0.06571400  0.63848171  0.80904525     0.08900
H2082       H  0.09564709  0.48705247  0.84335564     0.08900
H2083       H  0.10683567  0.50900007  0.87738628     0.08900
H2084       H  0.12477313  0.51712912  0.84083790     0.05700
C2085       C  0.43859466  0.53073178  0.79748571    -0.20100
C2086       C  0.44130466  0.56294714  0.79302934    -0.06700
C2087       C  0.43809936  0.58207695  0.81942795     0.14200
C2088       C  0.43377719  0.56838244  0.84926296    -0.20200
C2089       C  0.43140386  0.53623873  0.85389874    -0.06700
C2090       C  0.43212200  0.51716665  0.82726426     0.14100
C2091       C  0.42403989  0.48312774  0.82896531    -0.23500
H2092       H  0.43918557  0.51628259  0.77704987     0.15400
H2093       H  0.43367381  0.58288558  0.86958148     0.15500
C2094       C  0.43820658  0.61697578  0.81678464    -0.23500
H2095       H  0.39883247  0.47986346  0.83299647     0.05700
H2096       H  0.43629184  0.47129472  0.84807052     0.08900
H2097       H  0.42992183  0.47166907  0.80665328     0.08900
H2098       H  0.43289046  0.62753219  0.83963049     0.08900
H2099       H  0.42043787  0.62475677  0.80010202     0.08900
H2100       H  0.46131853  0.62599657  0.80905085     0.05700
C2101       C  0.03233600  0.94057076  0.81230565    -0.20100
C2102       C  0.06192265  0.92845274  0.81480501    -0.06700
C2103       C  0.07076572  0.91560036  0.84413552     0.14200
C2104       C  0.05096217  0.91781750  0.87053742    -0.20200
C2105       C  0.02185365  0.93149921  0.86861790    -0.06700
C2106       C  0.01203060  0.94177723  0.83844691     0.14100
C2107       C  0.98074218  0.95489663  0.83321596    -0.23500
H2108       H  0.02493627  0.94882354  0.78941316     0.15400
H2109       H  0.05908869  0.91019897  0.89339207     0.15500
C2110       C  0.10070519  0.89912478  0.84859340    -0.23500
H2111       H  0.97877593  0.96482956  0.80900817     0.05700
H2112       H  0.97558309  0.97364633  0.84960860     0.08900
H2113       H  0.96346698  0.93581209  0.83625893     0.08900
H2114       H  0.11561883  0.91278443  0.86419980     0.08900
H2115       H  0.11369467  0.89552358  0.82639951     0.08900
H2116       H  0.09589002  0.87584356  0.85952512     0.05700
C2117       C  0.16796636  0.93159501  0.98892759    -0.20100
C2118       C  0.14386423  0.91452262  0.97538016    -0.06700
C2119       C  0.15020254  0.89736363  0.94845443     0.14200
C2120       C  0.17915352  0.90107744  0.93325365    -0.20200
C2121       C  0.20209170  0.92098714  0.94488552    -0.06700
C2122       C  0.19700699  0.93508009  0.97397957     0.14100
C2123       C  0.22110961  0.95496009  0.98913141    -0.23500
H2124       H  0.16318923  0.94466760  0.00982275     0.15400
H2125       H  0.18376114  0.88864129  0.91192244     0.15500
C2126       C  0.12643088  0.87607462  0.93482497    -0.23500
H2127       H  0.21201365  0.97847398  0.99232703     0.05700
H2128       H  0.24284166  0.95729661  0.97498830     0.08900
H2129       H  0.22662344  0.94471821  0.01251591     0.08900
H2130       H  0.12125092  0.88408997  0.91064489     0.08900
H2131       H  0.10458115  0.87505839  0.94889392     0.08900
H2132       H  0.13555758  0.85230204  0.93404688     0.05700
C2133       C  0.17935990  0.54597029  0.98635796    -0.20100
C2134       C  0.14965628  0.54819080  0.97373694    -0.06700
C2135       C  0.14683836  0.56274253  0.94370743     0.14200
C2136       C  0.17300325  0.57483598  0.92738735    -0.20200
C2137       C  0.20257842  0.57143816  0.93930859    -0.06700
C2138       C  0.20584714  0.55728253  0.96942659     0.14100
C2139       C  0.23731398  0.55239944  0.98278451    -0.23500
H2140       H  0.18211751  0.53317414  0.00835944     0.15400
H2141       H  0.17054399  0.58573565  0.90431315     0.15500
C2142       C  0.11689864  0.56183891  0.92682604    -0.23500
H2143       H  0.23592323  0.53957894  0.00577694     0.05700
H2144       H  0.24903860  0.57503394  0.98639686     0.08900
H2145       H  0.25141499  0.53876399  0.96630579     0.08900
H2146       H  0.09849780  0.57215336  0.94115460     0.08900
H2147       H  0.11053375  0.53768879  0.92271600     0.08900
H2148       H  0.11871333  0.57333078  0.90320872     0.05700
C2149       C  0.16246484  0.55308695  0.60194477    -0.20100
C2150       C  0.13313968  0.55595750  0.61530598    -0.06700
C2151       C  0.12720995  0.58059290  0.63537131     0.14200
C2152       C  0.14944191  0.60472104  0.63724947    -0.20200
C2153       C  0.17670139  0.60451149  0.61877304    -0.06700
C2154       C  0.18286875  0.57836078  0.60026625     0.14100
C2155       C  0.20937422  0.57735052  0.57664730    -0.23500
H2156       H  0.16718296  0.53294684  0.58809733     0.15400
H2157       H  0.14548941  0.62374410  0.65272997     0.15500
C2158       C  0.09827234  0.58048005  0.65560623    -0.23500
H2159       H  0.20886064  0.55575541  0.56310481     0.05700
H2160       H  0.23178141  0.57818709  0.58832076     0.08900
H2161       H  0.20788824  0.59682290  0.55922644     0.08900
H2162       H  0.09883492  0.56104916  0.67317719     0.08900
H2163       H  0.07744401  0.57739720  0.64128059     0.08900
H2164       H  0.09613443  0.60236586  0.66837960     0.05700
C2165       C  0.15371989  0.92232593  0.59815492    -0.20100
C2166       C  0.12559043  0.91225622  0.61159822    -0.06700
C2167       C  0.12438945  0.88685373  0.63300810     0.14200
C2168       C  0.15186250  0.87140924  0.63998491    -0.20200
C2169       C  0.17996651  0.88084983  0.62524048    -0.06700
C2170       C  0.18067308  0.90678864  0.60379252     0.14100
C2171       C  0.20909435  0.91853765  0.58566810    -0.23500
H2172       H  0.15416046  0.94209733  0.58181590     0.15400
H2173       H  0.15140444  0.85192757  0.65660108     0.15500
C2174       C  0.09435317  0.87635537  0.64814888    -0.23500
H2175       H  0.20423068  0.93872018  0.56996145     0.05700
H2176       H  0.21789523  0.90047859  0.57016866     0.08900
H2177       H  0.22686340  0.92669903  0.60179225     0.08900
H2178       H  0.09730706  0.85523496  0.66309633     0.08900
H2179       H  0.07743617  0.87120079  0.62971785     0.08900
H2180       H  0.08522395  0.89494089  0.66298084     0.05700
C2181       C  0.39051200  0.67604963  0.91832987    -0.20100
C2182       C  0.38126574  0.66854266  0.88800294    -0.06700
C2183       C  0.37679218  0.63714230  0.88079616     0.14200
C2184       C  0.38617382  0.61411610  0.90265128    -0.20200
C2185       C  0.39850488  0.62242884  0.93171857    -0.06700
C2186       C  0.39720578  0.65346760  0.94083230     0.14100
C2187       C  0.40691531  0.66333442  0.97305464    -0.23500
H2188       H  0.39522504  0.69988691  0.92377230     0.15400
H2189       H  0.38610161  0.59007332  0.89620606     0.15500
C2190       C  0.36316981  0.62825629  0.85004893    -0.23500
H2191       H  0.40433061  0.68859350  0.97605179     0.05700
H2192       H  0.43145161  0.65787010  0.97700391     0.08900
H2193       H  0.39216808  0.65114291  0.99132129     0.08900
H2194       H  0.37689171  0.63886722  0.83014052     0.08900
H2195       H  0.33928576  0.63684494  0.84881311     0.08900
H2196       H  0.36241048  0.60275532  0.84749617     0.05700
C2197       C  0.03505991  0.68133940  0.95060304    -0.20100
C2198       C  0.04585415  0.65353315  0.93829266    -0.06700
C2199       C  0.07153024  0.65432002  0.91750447     0.14200
C2200       C  0.08675576  0.68241461  0.91071553    -0.20200
C2201       C  0.07607797  0.71001982  0.92293011    -0.06700
C2202       C  0.04945735  0.70983189  0.94228852     0.14100
C2203       C  0.03610219  0.73956006  0.95329723    -0.23500
H2204       H  0.01498376  0.68069695  0.96627552     0.15400
H2205       H  0.10651316  0.68303789  0.89457014     0.15500
C2206       C  0.08339279  0.62636045  0.90174661    -0.23500
H2207       H  0.01437347  0.73534860  0.96716739     0.05700
H2208       H  0.03064054  0.75464379  0.93269010     0.08900
H2209       H  0.05305782  0.75177791  0.96802983     0.08900
H2210       H  0.08241219  0.62984102  0.87584081     0.08900
H2211       H  0.06991322  0.60513533  0.90858672     0.08900
H2212       H  0.10783006  0.62355312  0.90821138     0.05700
C2213       C  0.40501983  0.63965896  0.56167845    -0.20100
C2214       C  0.39544182  0.61052601  0.57375257    -0.06700
C2215       C  0.37570034  0.60832343  0.60050938     0.14200
C2216       C  0.36737572  0.63561662  0.61573764    -0.20200
C2217       C  0.37985090  0.66451336  0.60526867    -0.06700
C2218       C  0.39863243  0.66643908  0.57751943     0.14100
C2219       C  0.41371329  0.69628992  0.56501197    -0.23500
H2220       H  0.42069439  0.64106722  0.54145736     0.15400
H2221       H  0.35245964  0.63419123  0.63652772     0.15500
C2222       C  0.36427105  0.57748521  0.61359829    -0.23500
H2223       H  0.42781119  0.69286556  0.54331460     0.05700
H2224       H  0.42951630  0.70582525  0.58264393     0.08900
H2225       H  0.39602933  0.71331635  0.55885000     0.08900
H2226       H  0.37464378  0.55785146  0.60126592     0.08900
H2227       H  0.33903718  0.57572424  0.61039967     0.08900
H2228       H  0.36983614  0.57517385  0.63891705     0.05700
C2229       C  0.01566376  0.66630904  0.55865016    -0.20100
C2230       C  0.03455088  0.64210243  0.56915315    -0.06700
C2231       C  0.06510820  0.64937465  0.57750154     0.14200
C2232       C  0.07711721  0.67919634  0.57143235    -0.20200
C2233       C  0.05914909  0.70266597  0.55822686    -0.06700
C2234       C  0.02742822  0.69656313  0.55347470     0.14100
C2235       C  0.00551969  0.72104205  0.54257521    -0.23500
H2236       H  0.99202028  0.66112353  0.55238789     0.15400
H2237       H  0.10078648  0.68432914  0.57767916     0.15500
C2238       C  0.08568284  0.62616692  0.59260529    -0.23500
H2239       H  0.99415624  0.71377912  0.52075305     0.05700
H2240       H  0.01717108  0.74375334  0.53759958     0.08900
H2241       H  0.98741599  0.72405990  0.56103281     0.08900
H2242       H  0.10759535  0.62447184  0.57881168     0.08900
H2243       H  0.07443304  0.60295871  0.59446077     0.08900
H2244       H  0.09127292  0.63397405  0.61648861     0.05700
C2245       C  0.75401186  0.16516781  0.05793325     0.42600
N2246       N  0.74817632  0.19440589  0.01665203     0.01500
C2247       C  0.84822494  0.28432741  0.42763989    -0.06400
H2248       H  0.84812417  0.30385681  0.06062951     0.07000
C2249       C  0.73662878  0.33759220  0.03869778    -0.06700
Co2250     Co  0.80227755  0.22002449  0.48821448     0.74200
N2251       N  0.82854235  0.27346828  0.02587796    -0.25900
Co2252     Co  0.80907265  0.29977796  0.98859090     0.74100
C2253       C  0.76136850  0.34688384  0.05989194     0.42700
N2254       N  0.69938259  0.27315524  0.01111172     0.01100
N2255       N  0.78019450  0.32214795  0.02062406     0.01200
N2256       N  0.84313860  0.23298387  0.43253097    -0.46700
H2257       H  0.80694733  0.17126843  0.05482606     0.07000
N2258       N  0.82663889  0.24303764  0.02485624     0.01500
N2259       N  0.78431304  0.32509774  0.45214200     0.01300
C2260       C  0.77610674  0.35544827  0.41198360     0.42900
N2261       N  0.69979655  0.24265751  0.01083389    -0.25400
C2262       C  0.79295364  0.17499385  0.43135687    -0.06300
N2263       N  0.73295510  0.17761078  0.03853370    -0.46500
N2264       N  0.79789610  0.34504516  0.43177867    -0.46700
C2265       C  0.76682968  0.16425807  0.41270536     0.42600
N2266       N  0.82944711  0.24596361  0.45625648     0.01500
N2267       N  0.70458712  0.24605419  0.44229928    -0.25400
N2268       N  0.77826670  0.19406311  0.02044364    -0.25900
N2269       N  0.70297206  0.27631463  0.44326817     0.01100
H2270       H  0.68232244  0.21223327  0.41409381     0.07000
H2271       H  0.72459099  0.34150387  0.41328035     0.07100
N2272       N  0.83142755  0.27639596  0.45446516    -0.25900
N2273       N  0.75013879  0.32196131  0.01579333    -0.25500
N2274       N  0.75213094  0.19824991  0.44640198     0.01500
C2275       C  0.84974508  0.25062033  0.06849944     0.42900
C2276       C  0.67748526  0.23134282  0.03050064    -0.06800
N2277       N  0.75444536  0.32214090  0.44769963    -0.25500
H2278       H  0.71203171  0.34091782  0.04096425     0.07100
N2279       N  0.83891349  0.22906789  0.04918707    -0.46700
H2280       H  0.67121857  0.20709710  0.03376473     0.07000
C2281       C  0.67284502  0.26377513  0.40514359     0.42700
C2282       C  0.78431804  0.17603177  0.04590443    -0.06300
Co2283     Co  0.72387097  0.22019827  0.47867920     0.73800
N2284       N  0.67687319  0.28351099  0.02963755    -0.46500
C2285       C  0.85617953  0.25459179  0.41291497     0.43000
N2286       N  0.74244810  0.17994240  0.42407219    -0.46500
Co2287     Co  0.72857198  0.29833528  0.97892522     0.73900
C2288       C  0.74776088  0.33794942  0.42144795    -0.06800
C2289       C  0.84319499  0.28072071  0.05281607    -0.06300
N2290       N  0.78186853  0.19611367  0.45114029    -0.25900
N2291       N  0.78785966  0.33626127  0.04700543    -0.46600
H2292       H  0.85242264  0.30760979  0.41842858     0.07000
C2293       C  0.68766991  0.23626775  0.41845739    -0.06800
Cl2294     Cl  0.76823151  0.25905396  0.98400573    -0.49800
C2295       C  0.66223540  0.25835163  0.04337523     0.42800
H2296       H  0.81580388  0.16597605  0.43182699     0.07000
N2297       N  0.68350479  0.28766709  0.42231168    -0.46500
C2298       C  0.63017049  0.25783169  0.05724567     0.03300
C2299       C  0.60898714  0.23578446  0.04612250    -0.12900
C2300       C  0.57937909  0.23202842  0.05969243     0.00800
C2301       C  0.56948469  0.25272223  0.08183920    -0.11400
C2302       C  0.59110232  0.27099569  0.09725932     0.03300
C2303       C  0.62149711  0.27465311  0.08420785    -0.10800
H2304       H  0.61624070  0.21954353  0.02864368     0.08900
H2305       H  0.54674098  0.24878066  0.09262217     0.06400
H2306       H  0.63869057  0.28815319  0.09625252     0.06300
C2307       C  0.86471877  0.24069353  0.09841001     0.03300
C2308       C  0.86014915  0.20902013  0.10682021    -0.12900
C2309       C  0.88081735  0.19374215  0.12585323     0.00800
C2310       C  0.89974533  0.21115312  0.14463523    -0.11400
C2311       C  0.90623404  0.24249434  0.13686389     0.03300
C2312       C  0.88834428  0.25769054  0.11356399    -0.10800
H2313       H  0.84458125  0.19454637  0.09375500     0.08900
H2314       H  0.91460136  0.19853737  0.16040344     0.06400
H2315       H  0.89468979  0.28090160  0.10525408     0.06300
C2316       C  0.59868299  0.26103062  0.35724388     0.03300
C2317       C  0.57950410  0.24547236  0.37946224    -0.12900
C2318       C  0.59093951  0.23517024  0.40807873     0.00800
C2319       C  0.62033000  0.24439087  0.41687862    -0.11400
C2320       C  0.64005374  0.26126161  0.39585943     0.03300
C2321       C  0.62934730  0.26925391  0.36538511    -0.10800
H2322       H  0.55665556  0.23759393  0.37282625     0.08900
H2323       H  0.62917756  0.23535179  0.43886686     0.06400
H2324       H  0.64500735  0.27988355  0.34788464     0.06300
C2325       C  0.91628927  0.23139311  0.35090817     0.03300
C2326       C  0.90681694  0.19971881  0.35449923    -0.12900
C2327       C  0.87802267  0.19117173  0.36826632     0.00800
C2328       C  0.85742644  0.21482203  0.37366907    -0.11400
C2329       C  0.86944634  0.24398490  0.38189273     0.03300
C2330       C  0.89862656  0.25337180  0.36801046    -0.10800
H2331       H  0.92260054  0.18155198  0.34899890     0.08900
H2332       H  0.83458383  0.20771843  0.38239358     0.06400
H2333       H  0.90813615  0.27624921  0.37192971     0.06300
N2334       N  0.96853241  0.10939327  0.45950957    -0.36400
N2335       N  0.52280445  0.10283156  0.00549723    -0.57000
N2336       N  0.99760105  0.08750125  0.06492165    -0.36400
N2337       N  0.94638421  0.09183999  0.02064199    -0.57000
C2338       C  0.49494497  0.12720466  0.45077989     0.27100
C2339       C  0.94136462  0.11806958  0.44760039     0.27100
C2340       C  0.50339955  0.09540957  0.07309151     0.27100
C2341       C  0.97339784  0.08765781  0.08556932     0.27100
C2342       C  0.53557478  0.11336092  0.48798235     0.35800
C2343       C  0.54168048  0.10041293  0.03004298     0.35800
C2344       C  0.90657185  0.08781182  0.48420490     0.35800
C2345       C  0.93127958  0.08088558  0.04689313     0.35800
C2346       C  0.48301539  0.14712276  0.42838413    -0.21700
C2347       C  0.94653247  0.14322923  0.42682446    -0.21700
C2348       C  0.49250422  0.10224965  0.10273969    -0.21700
C2349       C  0.98348810  0.09749972  0.11453684    -0.21700
C2350       C  0.56553142  0.11432983  0.49832825    -0.22800
C2351       C  0.57182846  0.10668076  0.02006820    -0.22800
C2352       C  0.87832330  0.07546469  0.49449005    -0.22800
C2353       C  0.90010342  0.07734269  0.04062322    -0.22800
C2354       C  0.52551469  0.12923773  0.46126414    -0.18100
C2355       C  0.91209137  0.10417408  0.45514494    -0.18100
C2356       C  0.94178883  0.08719257  0.07732273    -0.18100
C2357       C  0.53103994  0.10797622  0.05992623    -0.18100
H2358       H  0.49458731  0.16628960  0.41580377     0.14800
H2359       H  0.93057058  0.15548933  0.41252988     0.14800
H2360       H  0.50430672  0.11541437  0.12032503     0.14800
H2361       H  0.96939397  0.10140304  0.13531304     0.14800
H2362       H  0.58552313  0.12491658  0.48658797     0.13100
H2363       H  0.59171723  0.11010782  0.03449578     0.13100
H2364       H  0.85741456  0.07382469  0.48111070     0.13100
H2365       H  0.88164778  0.07204715  0.05758981     0.13100
H2366       H  0.97205091  0.09070104  0.47486649     0.26300
H2367       H  0.99666455  0.08275742  0.04113660     0.26300
C2368       C  0.59464359  0.16546924  0.22939137     0.42600
N2369       N  0.55828590  0.19744350  0.24144658     0.01500
C2370       C  0.94718183  0.28335341  0.15968885    -0.06400
H2371       H  0.56038041  0.32154683  0.13531262     0.07000
C2372       C  0.56348486  0.33861193  0.25930965    -0.06700
Co2373     Co  0.01894608  0.22558386  0.18904763     0.74200
N2374       N  0.54377577  0.28338766  0.16505577    -0.25900
Co2375     Co  0.00579523  0.30518986  0.19668710     0.74100
C2376       C  0.57539202  0.35744796  0.23232174     0.42700
N2377       N  0.54714084  0.27063606  0.29597488     0.01100
N2378       N  0.53794922  0.32703503  0.21821526     0.01200
N2379       N  0.95954211  0.23355755  0.15344359    -0.46700
H2380       H  0.58330767  0.17104745  0.17662458     0.07000
N2381       N  0.55118820  0.25392936  0.16634563     0.01500
N2382       N  0.97049668  0.32122278  0.22774329     0.01300
C2383       C  0.93197053  0.34368096  0.25071680     0.42900
N2384       N  0.55166958  0.24088620  0.29310922    -0.25400
C2385       C  0.96669952  0.17486503  0.20181936    -0.06300
N2386       N  0.57956214  0.17930139  0.25316223    -0.46500
N2387       N  0.94488433  0.33729882  0.22204998    -0.46700
C2388       C  0.95285397  0.15931761  0.22988749     0.42600
N2389       N  0.98131481  0.24821252  0.16864155     0.01500
N2390       N  0.98615334  0.23307992  0.29898756    -0.25400
N2391       N  0.55806268  0.19782673  0.21052716    -0.25900
N2392       N  0.98173180  0.26275869  0.30317061     0.01100
H2393       H  0.96337008  0.19155354  0.31687706     0.07000
H2394       H  0.95176346  0.33169899  0.29949802     0.07100
N2395       N  0.97473732  0.27753625  0.17277204    -0.25900
N2396       N  0.54019382  0.32142507  0.24874200    -0.25500
N2397       N  0.98876683  0.19171750  0.24357681     0.01500
C2398       C  0.58342040  0.27430436  0.13113529     0.42900
C2399       C  0.57638684  0.23340633  0.30993109    -0.06800
N2400       N  0.97484855  0.31697693  0.25819272    -0.25500
H2401       H  0.56983499  0.33996017  0.28370867     0.07100
N2402       N  0.57453934  0.24792922  0.14717484    -0.46700
H2403       H  0.58464095  0.21017610  0.31358033     0.07000
C2404       C  0.94576707  0.23907511  0.33202704     0.42700
C2405       C  0.58007061  0.17818414  0.20062793    -0.06300
Co2406     Co  0.02148912  0.21696434  0.26965827     0.73800
N2407       N  0.56688034  0.28377880  0.31529828    -0.46500
C2408       C  0.93705459  0.25375362  0.14690694     0.43000
N2409       N  0.96838146  0.17067062  0.25464231    -0.46500
Co2410     Co  0.01217359  0.29489730  0.27822099     0.73900
C2411       C  0.95256539  0.33051744  0.27413107    -0.06800
C2412       C  0.56250161  0.29783857  0.14331066    -0.09300
N2413       N  0.98831934  0.19454410  0.21261001    -0.25900
N2414       N  0.55766577  0.34925798  0.20775684    -0.46600
H2415       H  0.93546526  0.30517241  0.15990623     0.07000
C2416       C  0.96501078  0.21653308  0.31608083    -0.06800
Cl2417     Cl  0.01444091  0.26058502  0.23341422    -0.49800
C2418       C  0.58696445  0.26200578  0.32478848     0.42800
H2419       H  0.96192977  0.17117978  0.17732655     0.07000
N2420       N  0.95756225  0.26747337  0.32251851    -0.46500
C2421       C  0.75577436  0.35617087  0.09334211     0.03300
C2422       C  0.72688757  0.34647546  0.10623885    -0.12900
C2423       C  0.71309353  0.36316893  0.12975780     0.00800
C2424       C  0.73189284  0.37985232  0.14931981    -0.11400
C2425       C  0.76012944  0.39239192  0.13744316     0.03300
C2426       C  0.77260068  0.38006837  0.10895349    -0.10800
H2427       H  0.71204105  0.33080027  0.09376222     0.08900
H2428       H  0.72064691  0.39026487  0.16933072     0.06400
H2429       H  0.79258257  0.39113968  0.09742086     0.06300
C2430       C  0.74527046  0.14678852  0.08693201     0.03300
C2431       C  0.71351767  0.14434897  0.09465068    -0.12900
C2432       C  0.70321297  0.12554706  0.11993410     0.00800
C2433       C  0.72458824  0.11689706  0.14213278    -0.11400
C2434       C  0.75458552  0.11071473  0.13120256     0.03300
C2435       C  0.76595827  0.12780446  0.10416586    -0.10800
H2436       H  0.69652850  0.15306834  0.07850616     0.08900
H2437       H  0.71563813  0.10459128  0.16305435     0.06400
H2438       H  0.78904051  0.12409540  0.09503651     0.06300
C2439       C  0.76147925  0.13153171  0.40428488     0.03300
C2440       C  0.74325369  0.11421130  0.42605994    -0.12900
C2441       C  0.72754045  0.08763616  0.41750722     0.00800
C2442       C  0.73295938  0.07574083  0.38741425    -0.11400
C2443       C  0.75411878  0.09066496  0.36569168     0.03300
C2444       C  0.76786932  0.11936344  0.37417998    -0.10800
H2445       H  0.73801990  0.12364430  0.44892549     0.08900
H2446       H  0.72007743  0.05530953  0.38070489     0.06400
H2447       H  0.78165126  0.13285352  0.35701332     0.06300
C2448       C  0.75505787  0.43007175  0.37264588     0.03300
C2449       C  0.73239623  0.43750221  0.39542411    -0.12900
C2450       C  0.73165550  0.42236938  0.42513123     0.00800
C2451       C  0.75454417  0.40167664  0.43239583    -0.11400
C2452       C  0.77183043  0.38892140  0.40804332     0.03300
C2453       C  0.77364994  0.40423823  0.37843763    -0.10800
H2454       H  0.71494667  0.45425376  0.38989073     0.08900
H2455       H  0.75308621  0.38950809  0.45510224     0.06400
H2456       H  0.78734815  0.39482404  0.35952124     0.06300
N2457       N  0.61679807  0.05193505  0.04080480    -0.36400
N2458       N  0.59030459  0.48037085  0.09326828    -0.57000
N2459       N  0.60208981  0.43568261  0.04236495    -0.36400
N2460       N  0.60706554  0.48615818  0.49225225    -0.57000
C2461       C  0.59849399  0.04074259  0.06513742     0.27100
C2462       C  0.60406214  0.04535831  0.51538691     0.27100
C2463       C  0.59446784  0.41745571  0.06791798     0.27100
C2464       C  0.60413498  0.42283790  0.51843697     0.27100
C2465       C  0.60393514  0.00523225  0.10992842     0.35800
C2466       C  0.59798434  0.45554128  0.11095964     0.35800
C2467       C  0.62124468  0.01368793  0.47312910     0.35800
C2468       C  0.61788283  0.46199185  0.47669153     0.35800
C2469       C  0.57164687  0.02804552  0.05362355    -0.21700
C2470       C  0.57471787  0.03232903  0.52072710    -0.21700
C2471       C  0.59225991  0.38686376  0.05884108    -0.21700
C2472       C  0.59631147  0.39252184  0.52657023    -0.21700
C2473       C  0.61495416  0.99526279  0.13872146    -0.22800
C2474       C  0.60953131  0.46503933  0.13945010    -0.22800
C2475       C  0.63725284  0.00669777  0.44584543    -0.22800
C2476       C  0.63337828  0.47211136  0.44919939    -0.22800
C2477       C  0.60859606  0.03520506  0.09627499    -0.18100
C2478       C  0.62168038  0.04255901  0.48727448    -0.18100
C2479       C  0.61958377  0.43201612  0.49012016    -0.18100
C2480       C  0.60129499  0.42552551  0.09912521    -0.18100
H2481       H  0.55306673  0.01647461  0.06703516     0.14800
H2482       H  0.55914640  0.02277893  0.50406069     0.14800
H2483       H  0.58923884  0.36661581  0.07424118     0.14800
H2484       H  0.59853905  0.37259636  0.51192824     0.14800
H2485       H  0.62573086  0.00903753  0.15641529     0.13100
H2486       H  0.61924110  0.45060591  0.15778740     0.13100
H2487       H  0.65034358  0.02222092  0.43005643     0.13100
H2488       H  0.64556309  0.45867747  0.43214627     0.13100
H2489       H  0.63913198  0.06108300  0.04146252     0.26300
H2490       H  0.60906300  0.45886442  0.04288089     0.26300
C2491       C  0.58743069  0.38931190  0.23754946     0.03300
C2492       C  0.57027194  0.40512835  0.25988691    -0.12900
C2493       C  0.58476227  0.42568069  0.27937803     0.00800
C2494       C  0.61440587  0.43684036  0.27181967    -0.11400
C2495       C  0.63145475  0.42477057  0.24661651     0.03300
C2496       C  0.61820824  0.39974101  0.23001754    -0.10800
H2497       H  0.54713180  0.39687846  0.26648069     0.08900
H2498       H  0.62475112  0.45350970  0.28721860     0.06400
H2499       H  0.63217174  0.38740213  0.21332391     0.06300
C2500       C  0.89338931  0.09202787  0.22881404     0.03300
C2501       C  0.91004979  0.07009182  0.24566440    -0.12900
C2502       C  0.93813691  0.07781134  0.25864668     0.00800
C2503       C  0.95302598  0.10552975  0.24908294    -0.11400
C2504       C  0.93771416  0.12811791  0.23157738     0.03300
C2505       C  0.90723178  0.12153872  0.22147727    -0.10800
H2506       H  0.89852655  0.04858930  0.25328257     0.08900
H2507       H  0.97511985  0.11127835  0.25893379     0.06400
H2508       H  0.89406294  0.13941136  0.20994980     0.06300
C2509       C  0.60537577  0.13293615  0.23511608     0.03300
C2510       C  0.63193946  0.11957544  0.22110995    -0.12900
C2511       C  0.64003870  0.08870124  0.22992291     0.00800
C2512       C  0.62084255  0.07163046  0.25126909    -0.11400
C2513       C  0.59735071  0.08573893  0.26790864     0.03300
C2514       C  0.58962544  0.11593252  0.25939109    -0.10800
H2515       H  0.64693717  0.13347223  0.20544618     0.08900
H2516       H  0.62676586  0.04814817  0.25803814     0.06400
H2517       H  0.57172293  0.12677599  0.27301612     0.06300
C2518       C  0.86532460  0.40272140  0.26081229     0.03300
C2519       C  0.85745046  0.39310797  0.29201795    -0.12900
C2520       C  0.87531683  0.37220979  0.30820893     0.00800
C2521       C  0.89172879  0.35131157  0.29087409    -0.11400
C2522       C  0.90197848  0.35899712  0.25980531     0.03300
C2523       C  0.88851975  0.38548116  0.24441621    -0.10800
H2524       H  0.84147884  0.40587261  0.30621299     0.08900
H2525       H  0.90164293  0.33246243  0.30416802     0.06400
H2526       H  0.89762375  0.39392350  0.22181679     0.06300
N2527       N  0.94227569  0.48270273  0.41940040    -0.36400
N2528       N  0.99489296  0.03952192  0.38300631    -0.57000
N2529       N  0.55920042  0.49133580  0.39346894    -0.36400
N2530       N  0.98281535  0.42016757  0.40341012    -0.57000
C2531       C  0.92117894  0.00480157  0.39622866     0.27100
C2532       C  0.92126719  0.45923522  0.41737321     0.27100
C2533       C  0.56210945  0.01453045  0.40500811     0.27100
C2534       C  0.55091623  0.46814791  0.41432642     0.27100
C2535       C  0.96871712  0.03537490  0.40007687     0.35800
C2536       C  0.52203929  0.04840230  0.40182810     0.35800
C2537       C  0.95957269  0.42007111  0.42519142     0.35800
C2538       C  0.51020972  0.42659668  0.41944208     0.35800
C2539       C  0.89234179  0.99778771  0.38456971    -0.21700
C2540       C  0.89383639  0.47099763  0.40627975    -0.21700
C2541       C  0.56220252  0.00634896  0.43637533    -0.21700
C2542       C  0.55175806  0.47941232  0.44445092    -0.21700
C2543       C  0.97389459  0.03937011  0.43154055    -0.22800
C2544       C  0.50975632  0.04764979  0.43246422    -0.22800
C2545       C  0.97121691  0.42477862  0.45459525    -0.22800
C2546       C  0.50134165  0.42739650  0.45101201    -0.22800
C2547       C  0.94048810  0.02980027  0.38586612    -0.18100
C2548       C  0.92935974  0.42754386  0.41692140    -0.18100
C2549       C  0.53686550  0.44030450  0.40437811    -0.18100
C2550       C  0.55320793  0.04343844  0.39308716    -0.18100
H2551       H  0.87870469  0.01239124  0.36942149     0.14800
H2552       H  0.87341405  0.45784344  0.40015916     0.14800
H2553       H  0.56461766  0.02232630  0.45492548     0.14800
H2554       H  0.54770311  0.46764268  0.46675592     0.14800
H2555       H  0.95710552  0.03775514  0.45074434     0.13100
H2556       H  0.52195093  0.05166409  0.45393536     0.13100
H2557       H  0.95814598  0.42804756  0.47616790     0.13100
H2558       H  0.51510909  0.43210728  0.47110099     0.13100
H2559       H  0.96572594  0.48042852  0.42377934     0.26300
H2560       H  0.55824177  0.49106856  0.36906318     0.26300
C2561       C  0.66366493  0.43724287  0.24152914     0.42600
N2562       N  0.69882003  0.47231040  0.25013606     0.01500
C2563       C  0.79335075  0.06591903  0.15149140    -0.06400
H2564       H  0.81845455  0.43371743  0.15795084     0.07000
C2565       C  0.84236075  0.45635683  0.27494866    -0.06700
Co2566     Co  0.72928237  0.00211597  0.19038774     0.74200
N2567       N  0.78443301  0.46603275  0.17475961    -0.25900
Co2568     Co  0.80989432  0.00622070  0.19368983     0.74100
C2569       C  0.85395821  0.43467069  0.25173326     0.42700
N2570       N  0.77312416  0.47937922  0.30566926     0.01100
N2571       N  0.82882769  0.47170884  0.22872050     0.01200
N2572       N  0.74228671  0.05743195  0.14839756    -0.46700
H2573       H  0.67280015  0.44181213  0.18791395     0.07000
N2574       N  0.75403316  0.46592507  0.17318980     0.01500
N2575       N  0.83124028  0.04352815  0.21647815     0.01300
C2576       C  0.86014665  0.08393567  0.22604582     0.42900
N2577       N  0.74282430  0.47875597  0.30297602    -0.25400
C2578       C  0.68283598  0.05767924  0.19878066    -0.06300
N2579       N  0.67753128  0.45394857  0.26390454    -0.46500
N2580       N  0.85098379  0.06433129  0.20350434    -0.46700
C2581       C  0.67128531  0.07556502  0.22551380     0.42600
N2582       N  0.75512754  0.03464709  0.16395456     0.01500
N2583       N  0.74622521  0.04472109  0.29535252    -0.25400
N2584       N  0.70014885  0.46915480  0.21939913    -0.25900
N2585       N  0.77641983  0.04702795  0.29800083     0.01100
H2586       H  0.70828281  0.06359064  0.32136516     0.07000
H2587       H  0.84624108  0.08001445  0.27866252     0.07100
N2588       N  0.78527638  0.03839720  0.16601596    -0.25900
N2589       N  0.82641250  0.47731554  0.25906102    -0.25500
N2590       N  0.70323149  0.04073030  0.24158642     0.01500
C2591       C  0.76663998  0.42442269  0.14891500     0.42900
C2592       C  0.73038287  0.45914141  0.32488679    -0.06800
N2593       N  0.82723391  0.04725439  0.24697016    -0.25500
H2594       H  0.84447959  0.45592760  0.30024721     0.07100
N2595       N  0.74293527  0.44214569  0.15802975    -0.46700
H2596       H  0.70595114  0.45531122  0.32951913     0.07000
C2597       C  0.75788973  0.07781788  0.33324683     0.42700
C2598       C  0.67892408  0.44743543  0.21164923    -0.06300
Co2599     Co  0.72472535  0.00902536  0.27133106     0.73800
N2600       N  0.78233384  0.46087270  0.32898186    -0.46500
C2601       C  0.76429295  0.07864883  0.13980394     0.43000
N2602       N  0.68502974  0.06291566  0.25097684    -0.46500
Co2603     Co  0.79968075  0.51230841  0.27867120     0.73900
C2604       C  0.84314633  0.07270338  0.25477820    -0.06800
C2605       C  0.79462854  0.44036606  0.16025643    -0.06300
N2606       N  0.70290539  0.03726188  0.21090459    -0.25900
N2607       N  0.84462423  0.44596510  0.22324935    -0.46600
H2608       H  0.81607932  0.07666330  0.15110628     0.07000
C2609       C  0.73279492  0.06331361  0.31608508    -0.06800
Cl2610     Cl  0.76702405  0.00748574  0.23288455    -0.49800
C2611       C  0.75655481  0.44694257  0.34186205     0.42800
H2612       H  0.67628374  0.05893602  0.17447388     0.07000
N2613       N  0.78431665  0.06592207  0.32101685    -0.46500
C2614       C  0.87828564  0.37557470  0.36724456    -0.20100
C2615       C  0.89005953  0.38382024  0.33697853    -0.06700
C2616       C  0.91532049  0.40525594  0.33391013     0.14200
C2617       C  0.92744285  0.41807745  0.36062992    -0.20200
C2618       C  0.91599533  0.41016194  0.39065997    -0.06700
C2619       C  0.89111213  0.38869459  0.39428266     0.14100
C2620       C  0.87782177  0.38051921  0.42644136    -0.23500
H2621       H  0.85882226  0.35947868  0.36965204     0.15400
H2622       H  0.94552620  0.43549354  0.35817774     0.15500
C2623       C  0.92960579  0.41572184  0.30263132    -0.23500
H2624       H  0.85835624  0.36358571  0.42527674     0.05700
H2625       H  0.86917345  0.40166851  0.43758066     0.08900
H2626       H  0.89591812  0.37026473  0.44133196     0.08900
H2627       H  0.91263037  0.42812380  0.28825247     0.08900
H2628       H  0.93907152  0.39581343  0.29024805     0.08900
H2629       H  0.94925835  0.43202551  0.30523072     0.05700
C2630       C  0.54516503  0.06790317  0.33866735    -0.20100
C2631       C  0.56497355  0.05329562  0.36027420    -0.06700
C2632       C  0.59600175  0.04866725  0.34988409     0.14200
C2633       C  0.60563098  0.05888751  0.31951085    -0.20200
C2634       C  0.58491253  0.07146337  0.29792113    -0.06700
C2635       C  0.55383987  0.07409857  0.30731962     0.14100
C2636       C  0.52880650  0.08232674  0.28475581    -0.23500
H2637       H  0.52225569  0.07453308  0.34523911     0.15400
H2638       H  0.62977176  0.05734769  0.31272956     0.15500
C2639       C  0.61983232  0.03403139  0.37050299    -0.23500
H2640       H  0.51080983  0.06369295  0.28594845     0.05700
H2641       H  0.53701342  0.08414349  0.25990423     0.08900
H2642       H  0.51839262  0.10449567  0.29147772     0.08900
H2643       H  0.61470260  0.00895710  0.37414346     0.08900
H2644       H  0.62017937  0.04536613  0.39335714     0.08900
H2645       H  0.64345406  0.03625762  0.35993027     0.05700
C2646       C  0.94705806  0.08436530  0.31471078    -0.20100
C2647       C  0.94434765  0.06387950  0.28992217    -0.06700
C2648       C  0.94098725  0.03180250  0.29683506     0.14200
C2649       C  0.93725717  0.02154882  0.32824858    -0.20200
C2650       C  0.93850999  0.04237375  0.35305649    -0.06700
C2651       C  0.94488273  0.07407386  0.34587840     0.14100
C2652       C  0.95047314  0.09781363  0.37029280    -0.23500
H2653       H  0.94973069  0.10905268  0.30990139     0.15400
H2654       H  0.93472236  0.99693933  0.33340708     0.15500
C2655       C  0.94201593  0.00790374  0.27175289    -0.23500
H2656       H  0.93654750  0.11849064  0.36548726     0.05700
H2657       H  0.97510057  0.10520829  0.36943526     0.08900
H2658       H  0.94439944  0.08891201  0.39417312     0.08900
H2659       H  0.96059300  0.99134465  0.27695182     0.08900
H2660       H  0.94702580  0.01830032  0.24799998     0.08900
H2661       H  0.91960930  0.99498901  0.27145242     0.05700
C2662       C  0.54426043  0.44447135  0.31518801    -0.20100
C2663       C  0.57175382  0.42854935  0.31128296    -0.06700
C2664       C  0.58475052  0.41290317  0.33737879     0.14200
C2665       C  0.57073237  0.41518644  0.36701031    -0.20200
C2666       C  0.54417969  0.43241628  0.37142613    -0.06700
C2667       C  0.53042358  0.44707468  0.34500081     0.14100
C2668       C  0.50362726  0.46857338  0.34761348    -0.23500
H2669       H  0.53414307  0.45589313  0.29496451     0.15400
H2670       H  0.58128817  0.40423134  0.38714378     0.15500
C2671       C  0.61311393  0.39331465  0.33514913    -0.23500
H2672       H  0.51091884  0.49212798  0.33893169     0.05700
H2673       H  0.49477322  0.47058100  0.37199940     0.08900
H2674       H  0.48466595  0.46048504  0.33266362     0.08900
H2675       H  0.63189354  0.40388690  0.34892714     0.08900
H2676       H  0.62175948  0.39036933  0.31079469     0.08900
H2677       H  0.60766815  0.36978317  0.34516272     0.05700
C2678       C  0.67521610  0.42771421  0.49414939    -0.20100
C2679       C  0.64807831  0.41579395  0.48096779    -0.06700
C2680       C  0.64998755  0.40128884  0.45179931     0.14200
C2681       C  0.67767268  0.40381590  0.43404809    -0.20200
C2682       C  0.70333590  0.42039428  0.44514713    -0.06700
C2683       C  0.70274557  0.43075687  0.47631522     0.14100
C2684       C  0.73034518  0.44689948  0.48996083    -0.23500
H2685       H  0.67363825  0.43876192  0.51667854     0.15400
H2686       H  0.67897905  0.39382046  0.41097276     0.15500
C2687       C  0.62195635  0.38590887  0.43843325    -0.23500
H2688       H  0.72530898  0.45502128  0.51402901     0.05700
H2689       H  0.73723122  0.46736075  0.47486031     0.08900
H2690       H  0.74994207  0.43089659  0.49146309     0.08900
H2691       H  0.60308446  0.40273492  0.43651331     0.08900
H2692       H  0.61412991  0.36630244  0.45423746     0.08900
H2693       H  0.62688465  0.37679514  0.41472961     0.05700
C2694       C  0.67814157  0.05302793  0.48561429    -0.20100
C2695       C  0.64851478  0.06306580  0.47736232    -0.06700
C2696       C  0.64599851  0.08298225  0.45055100     0.14200
C2697       C  0.67216884  0.09026868  0.43161466    -0.20200
C2698       C  0.70086793  0.07751513  0.43800840    -0.06700
C2699       C  0.70425174  0.05978956  0.46606213     0.14100
C2700       C  0.73509323  0.04696533  0.47455317    -0.23500
H2701       H  0.68023054  0.03711146  0.50557918     0.15400
H2702       H  0.66993805  0.10531018  0.41096908     0.15500
C2703       C  0.61564511  0.09510508  0.43979202    -0.23500
H2704       H  0.73368887  0.03297728  0.49687562     0.05700
H2705       H  0.75205033  0.06621465  0.47748905     0.08900
H2706       H  0.74343661  0.03192367  0.45556146     0.08900
H2707       H  0.59578621  0.08469155  0.45332334     0.08900
H2708       H  0.61225236  0.08987075  0.41481417     0.08900
H2709       H  0.61580659  0.12065103  0.44168560     0.05700
C2710       C  0.66254106  0.05336135  0.09280111    -0.20100
C2711       C  0.63398535  0.05484928  0.10821014    -0.06700
C2712       C  0.62959891  0.07703870  0.13149983     0.14200
C2713       C  0.65191726  0.10097627  0.13418726    -0.20200
C2714       C  0.67843109  0.10232745  0.11457378    -0.06700
C2715       C  0.68382093  0.07782671  0.09363920     0.14100
C2716       C  0.71117972  0.07730246  0.07103914    -0.23500
H2717       H  0.66671749  0.03436332  0.07723290     0.15400
H2718       H  0.64888882  0.11838626  0.15169588     0.15500
C2719       C  0.60235224  0.07480550  0.15417350    -0.23500
H2720       H  0.71064421  0.05655722  0.05621936     0.05700
H2721       H  0.73300384  0.07670853  0.08387928     0.08900
H2722       H  0.71105230  0.09775060  0.05470825     0.08900
H2723       H  0.60495046  0.05483261  0.17071560     0.08900
H2724       H  0.58042032  0.07160503  0.14164412     0.08900
H2725       H  0.60062028  0.09587068  0.16835546     0.05700
C2726       C  0.65631871  0.41844995  0.09459896    -0.20100
C2727       C  0.62892342  0.40935639  0.11019803    -0.06700
C2728       C  0.62865897  0.38481621  0.13258946     0.14200
C2729       C  0.65631292  0.36930314  0.13852082    -0.20200
C2730       C  0.68367960  0.37793644  0.12191350    -0.06700
C2731       C  0.68340811  0.40291592  0.09934311     0.14100
C2732       C  0.71101023  0.41398905  0.07953545    -0.23500
H2733       H  0.65607325  0.43761818  0.07756556     0.15400
H2734       H  0.65665383  0.35068032  0.15609825     0.15500
C2735       C  0.59947916  0.37557995  0.15012494    -0.23500
H2736       H  0.70554858  0.43373986  0.06349510     0.05700
H2737       H  0.71892143  0.39541084  0.06422917     0.08900
H2738       H  0.72960741  0.42252045  0.09451062     0.08900
H2739       H  0.60294314  0.35495863  0.16566475     0.08900
H2740       H  0.58119853  0.37016896  0.13319141     0.08900
H2741       H  0.59179151  0.39500681  0.16466180     0.05700
C2742       C  0.87448052  0.16958275  0.42260359    -0.20100
C2743       C  0.87521539  0.16344600  0.39032960    -0.06700
C2744       C  0.87685911  0.13223187  0.38155118     0.14200
C2745       C  0.88277669  0.10922956  0.40508550    -0.20200
C2746       C  0.88585246  0.11706706  0.43698387    -0.06700
C2747       C  0.87639982  0.14649518  0.44589372     0.14100
C2748       C  0.87533104  0.15558574  0.47986571    -0.23500
H2749       H  0.87686031  0.19291002  0.42995091     0.15400
H2750       H  0.88844870  0.08608186  0.39816390     0.15500
C2751       C  0.87430441  0.12358926  0.34766744    -0.23500
H2752       H  0.86640423  0.17929727  0.48250083     0.05700
H2753       H  0.89882281  0.15515414  0.48958843     0.08900
H2754       H  0.85973525  0.13941240  0.49368492     0.08900
H2755       H  0.89274255  0.13547866  0.33310441     0.08900
H2756       H  0.85149041  0.13052545  0.33879454     0.08900
H2757       H  0.87642277  0.09824718  0.34489186     0.05700
C2758       C  0.54963652  0.18098241  0.46697400    -0.20100
C2759       C  0.54552098  0.15482055  0.44842693    -0.06700
C2760       C  0.55777323  0.15475283  0.41755454     0.14200
C2761       C  0.57299090  0.18128169  0.40551735    -0.20200
C2762       C  0.57605346  0.20786957  0.42351866    -0.06700
C2763       C  0.56495804  0.20765645  0.45482591     0.14100
C2764       C  0.56811643  0.23575102  0.47475172    -0.23500
H2765       H  0.54001505  0.18070127  0.49069006     0.15400
H2766       H  0.58223495  0.18140724  0.38160091     0.15500
C2767       C  0.55431513  0.12756084  0.39649868    -0.23500
H2768       H  0.55706679  0.23177633  0.49821683     0.05700
H2769       H  0.55700715  0.25578584  0.46308239     0.08900
H2770       H  0.59278412  0.24146077  0.47847888     0.08900
H2771       H  0.53970205  0.13393570  0.37629557     0.08900
H2772       H  0.54367506  0.10714056  0.40898420     0.08900
H2773       H  0.57727693  0.12091912  0.38727691     0.05700
C2774       C  0.93196742  0.14213697  0.07905987    -0.20100
C2775       C  0.92430379  0.11269057  0.09162076    -0.06700
C2776       C  0.90099235  0.10920073  0.11523408     0.14200
C2777       C  0.88643314  0.13585021  0.12627678    -0.20200
C2778       C  0.89443763  0.16536323  0.11343136    -0.06700
C2779       C  0.91718444  0.16828063  0.08900942     0.14100
C2780       C  0.92632211  0.19879383  0.07287435    -0.23500
H2781       H  0.94982295  0.14451927  0.06082515     0.15400
H2782       H  0.86895336  0.13361507  0.14484993     0.15500
C2783       C  0.89123996  0.07801471  0.12891667    -0.23500
H2784       H  0.94400152  0.19597933  0.05397999     0.05700
H2785       H  0.93642711  0.21480770  0.08987126     0.08900
H2786       H  0.90608276  0.20916667  0.06152956     0.08900
H2787       H  0.90450670  0.05900441  0.11857421     0.08900
H2788       H  0.86643797  0.07369591  0.12434663     0.08900
H2789       H  0.89482655  0.07748807  0.15468565     0.05700
C2790       C  0.52213772  0.16430689  0.05491844    -0.20100
C2791       C  0.53973624  0.14030640  0.06799023    -0.06700
C2792       C  0.56859779  0.14763533  0.08056816     0.14200
C2793       C  0.58074247  0.17765430  0.07687714    -0.20200
C2794       C  0.56451768  0.20097621  0.06122007    -0.06700
C2795       C  0.53399554  0.19473908  0.05180689     0.14100
C2796       C  0.51375921  0.21915172  0.03770496    -0.23500
H2797       H  0.49976689  0.15884427  0.04527258     0.15400
H2798       H  0.60330813  0.18289565  0.08621842     0.15500
C2799       C  0.58748533  0.12404376  0.09709086    -0.23500
H2800       H  0.50681150  0.21238751  0.01382601     0.05700
H2801       H  0.52538384  0.24221220  0.03557893     0.08900
H2802       H  0.49266691  0.22125277  0.05269507     0.08900
H2803       H  0.61031217  0.12246711  0.08499110     0.08900
H2804       H  0.57608752  0.10089717  0.09749272     0.08900
H2805       H  0.59092329  0.13127229  0.12162949     0.05700
C2806       C  0.74942103  0.16355879  0.55549290     0.42600
N2807       N  0.74346523  0.19441953  0.51545845     0.01500
C2808       C  0.85316443  0.28408494  0.92934527    -0.06400
H2809       H  0.84403475  0.30562978  0.55936315     0.07000
C2810       C  0.73284300  0.33716385  0.54055462    -0.06700
Co2811     Co  0.80719586  0.21895971  0.98876276     0.74200
N2812       N  0.82457342  0.27452055  0.52525632    -0.25900
Co2813     Co  0.80517825  0.30067276  0.48850183     0.74100
C2814       C  0.75757121  0.34621869  0.56181965     0.42700
N2815       N  0.69526119  0.27343939  0.51210634     0.01100
N2816       N  0.77649583  0.32279186  0.52149691     0.01200
N2817       N  0.85153543  0.23249262  0.93526049    -0.46700
H2818       H  0.80232743  0.17045581  0.55292343     0.07000
N2819       N  0.82178238  0.24412520  0.52491748     0.01500
N2820       N  0.78828105  0.32434328  0.95175837     0.01300
C2821       C  0.77956150  0.35612176  0.91275791     0.42900
N2822       N  0.69570377  0.24297714  0.51087366    -0.25400
C2823       C  0.79738369  0.17183253  0.93343016    -0.06300
N2824       N  0.72829274  0.17650836  0.53650264    -0.46500
N2825       N  0.80139819  0.34562888  0.93250421    -0.46700
C2826       C  0.77075886  0.16054583  0.91528960     0.42600
N2827       N  0.83519355  0.24503081  0.95752987     0.01500
N2828       N  0.70903681  0.24399012  0.94213079    -0.25400
N2829       N  0.77352623  0.19438930  0.51948927    -0.25900
N2830       N  0.70736549  0.27430395  0.94221745     0.01100
H2831       H  0.68706016  0.20926215  0.91476452     0.07000
H2832       H  0.72822119  0.34179926  0.91377882     0.07100
N2833       N  0.83582957  0.27552336  0.95541690    -0.25900
N2834       N  0.74636559  0.32235651  0.51706974    -0.25500
N2835       N  0.75686595  0.19631944  0.94754240     0.01500
C2836       C  0.84415958  0.25272424  0.56898145     0.42900
C2837       C  0.67373491  0.23086225  0.53038684    -0.06800
N2838       N  0.75851299  0.32105184  0.94688915    -0.25500
H2839       H  0.70821541  0.34013587  0.54305497     0.07100
N2840       N  0.83285745  0.23067680  0.55021920    -0.46700
H2841       H  0.66780504  0.20648779  0.53300541     0.07000
C2842       C  0.67745257  0.26054951  0.90415430     0.42700
C2843       C  0.77965452  0.17542940  0.54420545    -0.06300
Co2844     Co  0.72841663  0.21910939  0.97925433     0.73800
N2845       N  0.67286805  0.28301602  0.53129183    -0.46500
C2846       C  0.86370303  0.25496073  0.91582477     0.43000
N2847       N  0.74680832  0.17710606  0.92618396    -0.46500
Co2848     Co  0.72442885  0.29942323  0.48005773     0.73900
C2849       C  0.75151090  0.33794978  0.92145896    -0.06800
C2850       C  0.83899199  0.28233349  0.55209594    -0.06300
N2851       N  0.78667085  0.19418628  0.95212553    -0.25900
N2852       N  0.78416089  0.33628025  0.54830568    -0.46600
H2853       H  0.85674196  0.30730410  0.92010283     0.07000
C2854       C  0.69219675  0.23345826  0.91852408    -0.06800
Cl2855     Cl  0.76380247  0.26005350  0.48412867    -0.49800
C2856       C  0.65849178  0.25724340  0.54423032     0.42800
H2857       H  0.82031958  0.16270425  0.93459602     0.07000
N2858       N  0.68797862  0.28498296  0.92074586    -0.46500
C2859       C  0.62699044  0.25578858  0.55940923     0.03300
C2860       C  0.60593914  0.23255612  0.55008779    -0.12900
C2861       C  0.57640729  0.22939615  0.56411817     0.00800
C2862       C  0.56698893  0.25096788  0.58555696    -0.11400
C2863       C  0.58891088  0.26984259  0.59978952     0.03300
C2864       C  0.61882652  0.27350234  0.58582211    -0.10800
H2865       H  0.61288889  0.21574017  0.53307570     0.08900
H2866       H  0.54440983  0.24753384  0.59685815     0.06400
H2867       H  0.63612109  0.28780853  0.59678484     0.06300
C2868       C  0.85930407  0.24355611  0.59912445     0.03300
C2869       C  0.85147997  0.21317465  0.60950547    -0.12900
C2870       C  0.87386337  0.19467968  0.62239490     0.00800
C2871       C  0.89877907  0.20868618  0.63672624    -0.11400
C2872       C  0.90568324  0.24047993  0.63175202     0.03300
C2873       C  0.88628656  0.25801049  0.61141364    -0.10800
H2874       H  0.83162641  0.20131702  0.59992523     0.08900
H2875       H  0.91519568  0.19361118  0.64789358     0.06400
H2876       H  0.89346914  0.28102210  0.60320272     0.06300
C2877       C  0.60315329  0.26265691  0.85523703     0.03300
C2878       C  0.58326926  0.24725583  0.87680648    -0.12900
C2879       C  0.59464248  0.23324445  0.90363226     0.00800
C2880       C  0.62473964  0.23950175  0.91259011    -0.11400
C2881       C  0.64489984  0.25797754  0.89344155     0.03300
C2882       C  0.63434235  0.26877403  0.86361957    -0.10800
H2883       H  0.55973083  0.24171670  0.87027792     0.08900
H2884       H  0.63317740  0.22791905  0.93352923     0.06400
H2885       H  0.65029905  0.28006980  0.84683263     0.06300
C2886       C  0.92504717  0.23500840  0.85585739     0.03300
C2887       C  0.91966502  0.20367309  0.86542581    -0.12900
C2888       C  0.89142957  0.19438984  0.87973285     0.00800
C2889       C  0.86782248  0.21525036  0.87808386    -0.11400
C2890       C  0.87657022  0.24583046  0.88439381     0.03300
C2891       C  0.90494881  0.25705227  0.86983427    -0.10800
H2892       H  0.93787354  0.18703079  0.86395185     0.08900
H2893       H  0.84515913  0.20666478  0.88595277     0.06400
H2894       H  0.91170308  0.28125540  0.87059849     0.06300
N2895       N  0.98780708  0.11214439  0.96825968    -0.36400
N2896       N  0.51618103  0.10417495  0.51149383    -0.57000
N2897       N  0.97474656  0.08761665  0.55785349    -0.36400
N2898       N  0.92611219  0.08887933  0.50867250    -0.57000
C2899       C  0.49674396  0.12487486  0.94704754     0.27100
C2900       C  0.96034385  0.11987366  0.95633582     0.27100
C2901       C  0.49202019  0.09743404  0.57691878     0.27100
C2902       C  0.94894080  0.09061942  0.57579693     0.27100
C2903       C  0.54048204  0.11135801  0.98034224     0.35800
C2904       C  0.53336205  0.09987625  0.53709614     0.35800
C2905       C  0.92518998  0.09566755  0.99813240     0.35800
C2906       C  0.91059659  0.07756667  0.53459447     0.35800
C2907       C  0.48261540  0.14548565  0.92686101    -0.21700
C2908       C  0.96529995  0.13839378  0.92941400    -0.21700
C2909       C  0.47937359  0.10513339  0.60553560    -0.21700
C2910       C  0.95672888  0.10495767  0.60365299    -0.21700
C2911       C  0.57107491  0.11375151  0.98872132    -0.22800
C2912       C  0.56422557  0.10502611  0.52914075    -0.22800
C2913       C  0.89625142  0.08686711  0.00986002    -0.22800
C2914       C  0.88078890  0.06926182  0.52635584    -0.22800
C2915       C  0.52831565  0.12646111  0.95402298    -0.18100
C2916       C  0.93067356  0.11287327  0.96983668    -0.18100
C2917       C  0.91809104  0.08664744  0.56535252    -0.18100
C2918       C  0.52136814  0.10800475  0.56626936    -0.18100
H2919       H  0.49298648  0.16475769  0.91339329     0.14800
H2920       H  0.94847686  0.14780510  0.91372700     0.14800
H2921       H  0.49058955  0.11739369  0.62414845     0.14800
H2922       H  0.94152753  0.11157576  0.62264569     0.14800
H2923       H  0.59006727  0.12419893  0.97516897     0.13100
H2924       H  0.58334815  0.10664263  0.54483285     0.13100
H2925       H  0.87443608  0.08931349  0.99821858     0.13100
H2926       H  0.86191749  0.06255252  0.54236310     0.13100
H2927       H  0.99098143  0.09799069  0.98791090     0.26300
H2928       H  0.97565760  0.07866417  0.53538487     0.26300
C2929       C  0.59330685  0.16414984  0.73064346     0.42600
N2930       N  0.55846445  0.19731721  0.74358859     0.01500
C2931       C  0.94728024  0.28130150  0.65486557    -0.06400
H2932       H  0.55957360  0.32117124  0.63746839     0.07000
C2933       C  0.56370672  0.33859546  0.76138323    -0.06700
Co2934     Co  0.01855341  0.22382983  0.68676545     0.74200
N2935       N  0.54318944  0.28346659  0.66785894    -0.25900
Co2936     Co  0.00643514  0.30387858  0.69171161     0.74100
C2937       C  0.57547624  0.35743458  0.73429418     0.42700
N2938       N  0.54828189  0.27148157  0.79788783     0.01100
N2939       N  0.53766710  0.32727749  0.72070018     0.01200
N2940       N  0.95811775  0.23080072  0.65194783    -0.46700
H2941       H  0.58063501  0.16990970  0.67825140     0.07000
N2942       N  0.55036282  0.25395709  0.66930008     0.01500
N2943       N  0.97176504  0.32086131  0.72260064     0.01300
C2944       C  0.93313804  0.34346582  0.74524054     0.42900
N2945       N  0.55364591  0.24198903  0.79432858    -0.25400
C2946       C  0.96781926  0.17288066  0.70149194    -0.06300
N2947       N  0.57920776  0.17823671  0.75480981    -0.46500
N2948       N  0.94603614  0.33670247  0.71670503    -0.46700
C2949       C  0.95528268  0.15667284  0.72965331     0.42600
N2950       N  0.98012397  0.24573496  0.66669354     0.01500
N2951       N  0.98918499  0.23415804  0.79717011    -0.25400
N2952       N  0.55734960  0.19764431  0.71272088    -0.25900
N2953       N  0.98466017  0.26407976  0.80001077     0.01100
H2954       H  0.96871873  0.19388003  0.81988630     0.07000
H2955       H  0.95262782  0.33158777  0.79418483     0.07100
N2956       N  0.97445917  0.27552554  0.66892817    -0.25900
N2957       N  0.53998640  0.32175166  0.75119514    -0.25500
N2958       N  0.99146089  0.18943208  0.74254756     0.01500
C2959       C  0.58232083  0.27378748  0.63368221     0.42900
C2960       C  0.58025429  0.23561119  0.80844266    -0.06800
N2961       N  0.97630033  0.31693292  0.75306819    -0.25500
H2962       H  0.57041798  0.33991148  0.78566468     0.07100
N2963       N  0.57359499  0.24764940  0.65016518    -0.46700
H2964       H  0.58992414  0.21282526  0.81069931     0.07000
C2965       C  0.95196048  0.24205671  0.83341067     0.42700
C2966       C  0.57841709  0.17729710  0.70227001    -0.06300
Co2967     Co  0.02408500  0.21669718  0.76749385     0.73800
N2968       N  0.56926707  0.28532505  0.81534103    -0.46500
C2969       C  0.93635809  0.25120165  0.64352456     0.43000
N2970       N  0.97095966  0.16867144  0.75415823    -0.46500
Co2971     Co  0.01410409  0.29509976  0.77333438     0.73900
C2972       C  0.95380967  0.33043874  0.76880773    -0.06800
C2973       C  0.56174406  0.29758673  0.64580544    -0.09300
N2974       N  0.98970030  0.19249779  0.71167392    -0.25900
N2975       N  0.55747293  0.34927631  0.70997832    -0.46600
H2976       H  0.93635468  0.30352408  0.65329240     0.07000
C2977       C  0.96976193  0.21865350  0.81703986    -0.06800
Cl2978     Cl  0.01544629  0.25970964  0.72994983    -0.49800
C2979       C  0.59100563  0.26444433  0.82294989     0.42800
H2980       H  0.96100838  0.17067023  0.67732929     0.07000
N2981       N  0.96241466  0.26990932  0.82123636    -0.46500
C2982       C  0.75183005  0.35581218  0.59534365     0.03300
C2983       C  0.72262339  0.34664461  0.60796167    -0.12900
C2984       C  0.70865976  0.36371365  0.63114092     0.00800
C2985       C  0.72732201  0.38054038  0.65074442    -0.11400
C2986       C  0.75597090  0.39248068  0.63931539     0.03300
C2987       C  0.76874505  0.37960522  0.61114400    -0.10800
H2988       H  0.70777744  0.33095909  0.59551021     0.08900
H2989       H  0.71588324  0.39137122  0.67039322     0.06400
H2990       H  0.78912950  0.39020552  0.59993932     0.06300
C2991       C  0.74092760  0.14440841  0.58406473     0.03300
C2992       C  0.70921072  0.14029517  0.59139610    -0.12900
C2993       C  0.69965098  0.12280168  0.61796089     0.00800
C2994       C  0.72147978  0.11644176  0.64052315    -0.11400
C2995       C  0.75174778  0.11082272  0.62986485     0.03300
C2996       C  0.76239241  0.12709854  0.60208464    -0.10800
H2997       H  0.69199585  0.14729983  0.57466312     0.08900
H2998       H  0.71311184  0.10507057  0.66218199     0.06400
H2999       H  0.78576410  0.12429594  0.59333482     0.06300
C3000       C  0.76416495  0.12784767  0.90634021     0.03300
C3001       C  0.74400587  0.11133832  0.92707297    -0.12900
C3002       C  0.72733981  0.08558346  0.91757169     0.00800
C3003       C  0.73361931  0.07331708  0.88784671    -0.11400
C3004       C  0.75611117  0.08719242  0.86696236     0.03300
C3005       C  0.77045658  0.11562482  0.87607981    -0.10800
H3006       H  0.73829876  0.12082613  0.94979068     0.08900
H3007       H  0.72028754  0.05333404  0.88069902     0.06400
H3008       H  0.78435903  0.12924047  0.85922402     0.06300
C3009       C  0.75670742  0.42925174  0.87205947     0.03300
C3010       C  0.73372923  0.43641949  0.89455489    -0.12900
C3011       C  0.73338121  0.42198320  0.92454415     0.00800
C3012       C  0.75695933  0.40224688  0.93245914    -0.11400
C3013       C  0.77485872  0.38954830  0.90849544     0.03300
C3014       C  0.77624610  0.40429383  0.87855344    -0.10800
H3015       H  0.71571363  0.45241714  0.88862487     0.08900
H3016       H  0.75574081  0.39059964  0.95544963     0.06400
H3017       H  0.79034199  0.39495416  0.85989788     0.06300
N3018       N  0.61645133  0.05237108  0.54311797    -0.36400
N3019       N  0.58948389  0.48362302  0.59582299    -0.57000
N3020       N  0.60070745  0.44086205  0.54380479    -0.36400
N3021       N  0.60624511  0.47921344  0.98971026    -0.57000
C3022       C  0.59651359  0.04091293  0.56603725     0.27100
C3023       C  0.60351517  0.04281333  0.01417100     0.27100
C3024       C  0.59151180  0.42201956  0.56841225     0.27100
C3025       C  0.60579272  0.41680275  0.01764992     0.27100
C3026       C  0.59761821  0.00356195  0.60976916     0.35800
C3027       C  0.59570544  0.45800682  0.61295581     0.35800
C3028       C  0.62072134  0.00969156  0.97306559     0.35800
C3029       C  0.61578670  0.45474762  0.97386573     0.35800
C3030       C  0.56982107  0.03006102  0.55257086    -0.21700
C3031       C  0.57496699  0.02883754  0.02155305    -0.21700
C3032       C  0.58795199  0.39201253  0.55799485    -0.21700
C3033       C  0.59983815  0.38647215  0.02725288    -0.21700
C3034       C  0.60691867  0.99181537  0.63857839    -0.22800
C3035       C  0.60745700  0.46616499  0.64179031    -0.22800
C3036       C  0.63676468  0.00197477  0.94604550    -0.22800
C3037       C  0.62892091  0.46439776  0.94498651    -0.22800
C3038       C  0.60462564  0.03366931  0.59753463    -0.18100
C3039       C  0.62007113  0.03939957  0.98550618    -0.18100
C3040       C  0.61977740  0.42553881  0.98838496    -0.18100
C3041       C  0.59813379  0.42837383  0.60008046    -0.18100
H3042       H  0.55009198  0.01887171  0.56446532     0.14800
H3043       H  0.55922048  0.01748365  0.00619482     0.14800
H3044       H  0.58352060  0.37134675  0.57247462     0.14800
H3045       H  0.60276173  0.36607219  0.01341920     0.14800
H3046       H  0.61737319  0.00433174  0.65739251     0.13100
H3047       H  0.61633225  0.45077938  0.65980622     0.13100
H3048       H  0.64970483  0.01712824  0.92977832     0.13100
H3049       H  0.63964473  0.45049293  0.92730895     0.13100
H3050       H  0.63909096  0.06031070  0.54516355     0.26300
H3051       H  0.60893446  0.46358352  0.54535001     0.26300
C3052       C  0.58673773  0.38951437  0.73963736     0.03300
C3053       C  0.56933456  0.40455550  0.76230987    -0.12900
C3054       C  0.58360089  0.42446754  0.78259980     0.00800
C3055       C  0.61314973  0.43618670  0.77535110    -0.11400
C3056       C  0.63001819  0.42565891  0.74921935     0.03300
C3057       C  0.61713640  0.40089314  0.73194375    -0.10800
H3058       H  0.54621548  0.39594501  0.76851224     0.08900
H3059       H  0.62326539  0.45273614  0.79102273     0.06400
H3060       H  0.63110306  0.38949457  0.71452813     0.06300
C3061       C  0.88005630  0.10671771  0.72980255     0.03300
C3062       C  0.86311024  0.12638503  0.74897569    -0.12900
C3063       C  0.87951965  0.14560047  0.76907948     0.00800
C3064       C  0.90398140  0.16158809  0.75386874    -0.11400
C3065       C  0.92285270  0.14501108  0.73340857     0.03300
C3066       C  0.91120424  0.11616351  0.72202582    -0.10800
H3067       H  0.83928460  0.12042498  0.75431345     0.08900
H3068       H  0.91301074  0.18239950  0.76433120     0.06400
H3069       H  0.92618587  0.10109806  0.70909986     0.06300
C3070       C  0.60401739  0.13158182  0.73583621     0.03300
C3071       C  0.63099486  0.11908838  0.72190177    -0.12900
C3072       C  0.63955375  0.08829375  0.73013591     0.00800
C3073       C  0.62014007  0.07014149  0.75021166    -0.11400
C3074       C  0.59638991  0.08335140  0.76729885     0.03300
C3075       C  0.58831747  0.11380019  0.75966249    -0.10800
H3076       H  0.64594634  0.13357267  0.70672608     0.08900
H3077       H  0.62628697  0.04647956  0.75592592     0.06400
H3078       H  0.57036430  0.12428639  0.77352906     0.06300
C3079       C  0.86751412  0.40304109  0.75866829     0.03300
C3080       C  0.86115796  0.39273190  0.79004828    -0.12900
C3081       C  0.87741416  0.36894162  0.80394834     0.00800
C3082       C  0.89176350  0.34828022  0.78448410    -0.11400
C3083       C  0.90263033  0.35807492  0.75424594     0.03300
C3084       C  0.88977681  0.38590079  0.74074027    -0.10800
H3085       H  0.84712930  0.40591233  0.80582711     0.08900
H3086       H  0.90100323  0.32793539  0.79596256     0.06400
H3087       H  0.89862570  0.39525478  0.71838664     0.06300
N3088       N  0.94185812  0.47040793  0.91526283    -0.36400
N3089       N  0.97853662  0.06211772  0.86815868    -0.57000
N3090       N  0.54936441  0.49007683  0.89204556    -0.36400
N3091       N  0.98734522  0.40880017  0.90645044    -0.57000
C3092       C  0.90468497  0.03536997  0.88059851     0.27100
C3093       C  0.92229538  0.44562143  0.91555450     0.27100
C3094       C  0.56489126  0.01063899  0.90645422     0.27100
C3095       C  0.54490300  0.46695779  0.91376848     0.27100
C3096       C  0.95123818  0.06465517  0.88373669     0.35800
C3097       C  0.52465281  0.04414421  0.90190963     0.35800
C3098       C  0.96270640  0.40938070  0.92650396     0.35800
C3099       C  0.50547855  0.42506315  0.92234013     0.35800
C3100       C  0.87293451  0.03095894  0.88487728    -0.21700
C3101       C  0.89346316  0.45520524  0.90596146    -0.21700
C3102       C  0.56270529  0.00311257  0.93796329    -0.21700
C3103       C  0.54950061  0.47864247  0.94326593    -0.21700
C3104       C  0.95531753  0.06127227  0.91575557    -0.22800
C3105       C  0.51251962  0.04545512  0.93251260    -0.22800
C3106       C  0.97209305  0.41792929  0.95587108    -0.22800
C3107       C  0.49614660  0.43032844  0.95320808    -0.22800
C3108       C  0.92212434  0.06234045  0.86981506    -0.18100
C3109       C  0.93273583  0.41468087  0.91571981    -0.18100
C3110       C  0.53156312  0.43821365  0.90578450    -0.18100
C3111       C  0.55572306  0.03906398  0.89319040    -0.18100
H3112       H  0.85519230  0.04811683  0.88402340     0.14800
H3113       H  0.87345912  0.44066924  0.90169901     0.14800
H3114       H  0.56256148  0.01932328  0.95648261     0.14800
H3115       H  0.54927505  0.46653019  0.96572499     0.14800
H3116       H  0.93743226  0.05967878  0.93389088     0.13100
H3117       H  0.52454732  0.05214384  0.95333369     0.13100
H3118       H  0.95738600  0.42285295  0.97591663     0.13100
H3119       H  0.50905871  0.43961722  0.97214782     0.13100
H3120       H  0.96570803  0.46979704  0.91814048     0.26300
H3121       H  0.54531808  0.48958765  0.86823028     0.26300
C3122       C  0.66167951  0.43943393  0.74354743     0.42600
N3123       N  0.69752013  0.47385251  0.75192752     0.01500
C3124       C  0.79166650  0.06651099  0.65083546    -0.06400
H3125       H  0.81519458  0.43315682  0.65890080     0.07000
C3126       C  0.84307553  0.45605058  0.77382001    -0.06700
Co3127     Co  0.72773507  0.00292615  0.68970489     0.74200
N3128       N  0.78208183  0.46657401  0.67533874    -0.25900
Co3129     Co  0.80817288  0.00476478  0.69173543     0.74100
C3130       C  0.85487915  0.43479883  0.75024231     0.42700
N3131       N  0.77393227  0.47898387  0.80544613     0.01100
N3132       N  0.82855591  0.47159059  0.72794057     0.01200
N3133       N  0.74058389  0.05801371  0.64854768    -0.46700
H3134       H  0.67008157  0.44431508  0.68982684     0.07000
N3135       N  0.75162215  0.46695960  0.67430688     0.01500
N3136       N  0.83223676  0.04005670  0.71594089     0.01300
C3137       C  0.86729329  0.07415033  0.72862869     0.42900
N3138       N  0.74357174  0.47853551  0.80327139    -0.25400
C3139       C  0.68266906  0.05854820  0.69924095    -0.06300
N3140       N  0.67600486  0.45582802  0.76586710    -0.46500
N3141       N  0.85246094  0.06133213  0.70409349    -0.46700
C3142       C  0.67112122  0.07601208  0.72610170     0.42600
N3143       N  0.75369870  0.03528814  0.66380179     0.01500
N3144       N  0.74732996  0.04235748  0.79527584    -0.25400
N3145       N  0.69831700  0.47099019  0.72114745    -0.25900
N3146       N  0.77756663  0.04254058  0.79859769     0.01100
H3147       H  0.71011795  0.06292166  0.82101943     0.07000
H3148       H  0.86026406  0.06006561  0.78064621     0.07100
N3149       N  0.78391006  0.03885028  0.66543066    -0.25900
N3150       N  0.82663317  0.47698106  0.75833894    -0.25500
N3151       N  0.70306668  0.04095731  0.74184054     0.01500
C3152       C  0.76309334  0.42445141  0.65099720     0.42900
C3153       C  0.73142618  0.45834453  0.82477225    -0.06800
N3154       N  0.83123448  0.03955774  0.74704059    -0.25500
H3155       H  0.84570377  0.45562505  0.79905136     0.07100
N3156       N  0.73985074  0.44280871  0.66015183    -0.46700
H3157       H  0.70704398  0.45449050  0.82969542     0.07000
C3158       C  0.76004269  0.07373043  0.83452044     0.42700
C3159       C  0.67661011  0.44968250  0.71351217    -0.06300
Co3160     Co  0.72416957  0.00794169  0.77076691     0.73800
N3161       N  0.78343482  0.45988726  0.82810725    -0.46500
C3162       C  0.76227656  0.07928861  0.63963190     0.43000
N3163       N  0.68479060  0.06301242  0.75151809    -0.46500
Co3164     Co  0.80040063  0.51208227  0.77855764     0.73900
C3165       C  0.85344371  0.05859376  0.75668226    -0.06800
C3166       C  0.79154822  0.44035623  0.66128474    -0.06300
N3167       N  0.70258036  0.03796435  0.71112720    -0.25900
N3168       N  0.84481571  0.44620717  0.72201763    -0.46600
H3169       H  0.81439911  0.07714372  0.64974120     0.07000
C3170       C  0.73462966  0.06132547  0.81621383    -0.06800
Cl3171     Cl  0.76609698  0.00610746  0.73178769    -0.49800
C3172       C  0.75783011  0.44569618  0.84105528     0.42800
H3173       H  0.67592642  0.05985313  0.67501328     0.07000
N3174       N  0.78571439  0.05970978  0.82293158    -0.46500
C3175       C  0.88017483  0.36791693  0.86330342    -0.20100
C3176       C  0.89325164  0.37626651  0.83361564    -0.06700
C3177       C  0.92104661  0.39421122  0.83204083     0.14200
C3178       C  0.93491646  0.40290773  0.85967973    -0.20200
C3179       C  0.92132639  0.39633775  0.88911337    -0.06700
C3180       C  0.89390111  0.37824302  0.89116681     0.14100
C3181       C  0.87894541  0.37095846  0.92272665    -0.23500
H3182       H  0.85881464  0.35442597  0.86463464     0.15400
H3183       H  0.95544593  0.41713920  0.85830297     0.15500
C3184       C  0.93550496  0.40622061  0.80136221    -0.23500
H3185       H  0.85672643  0.35859786  0.92013739     0.05700
H3186       H  0.87419961  0.39256477  0.93524788     0.08900
H3187       H  0.89439577  0.35639304  0.93712007     0.08900
H3188       H  0.91905351  0.42050448  0.78813094     0.08900
H3189       H  0.94366284  0.38708204  0.78728953     0.08900
H3190       H  0.95609714  0.42092003  0.80461484     0.05700
C3191       C  0.54627182  0.06352943  0.83919571    -0.20100
C3192       C  0.56678767  0.04861198  0.85995452    -0.06700
C3193       C  0.59728642  0.04359389  0.84801022     0.14200
C3194       C  0.60562079  0.05371602  0.81727221    -0.20200
C3195       C  0.58454304  0.06779913  0.79703928    -0.06700
C3196       C  0.55391730  0.07050286  0.80771747     0.14100
C3197       C  0.52825987  0.07960294  0.78637024    -0.23500
H3198       H  0.52354635  0.07003528  0.84670900     0.15400
H3199       H  0.62949972  0.05176371  0.80964898     0.15500
C3200       C  0.62281722  0.02931582  0.86656176    -0.23500
H3201       H  0.51011975  0.06112677  0.78766837     0.05700
H3202       H  0.53562154  0.08203945  0.76129169     0.08900
H3203       H  0.51845124  0.10166503  0.79424131     0.08900
H3204       H  0.62870396  0.00663150  0.85668282     0.08900
H3205       H  0.61707623  0.02605195  0.89155017     0.08900
H3206       H  0.64366371  0.04473974  0.86523544     0.05700
C3207       C  0.91590801  0.13576132  0.81413067    -0.20100
C3208       C  0.88669766  0.13143723  0.80108767    -0.06700
C3209       C  0.86799483  0.10762720  0.81454362     0.14200
C3210       C  0.88098747  0.08424116  0.83338308    -0.20200
C3211       C  0.91090568  0.08704370  0.84593309    -0.06700
C3212       C  0.92830360  0.11446725  0.83585267     0.14100
C3213       C  0.96139244  0.12098069  0.84366373    -0.23500
H3214       H  0.93035151  0.15502019  0.80575699     0.15400
H3215       H  0.86650638  0.06426654  0.83801262     0.15500
C3216       C  0.83352114  0.10978390  0.81374017    -0.23500
H3217       H  0.96987445  0.14411510  0.83527320     0.05700
H3218       H  0.97580403  0.10449190  0.83090110     0.08900
H3219       H  0.96478344  0.12052129  0.86926436     0.08900
H3220       H  0.82380245  0.09365590  0.79683339     0.08900
H3221       H  0.82633527  0.13362136  0.80735573     0.08900
H3222       H  0.82375210  0.10394089  0.83741083     0.05700
C3223       C  0.54077085  0.44054928  0.81689228    -0.20100
C3224       C  0.56958875  0.42702899  0.81418581    -0.06700
C3225       C  0.58236791  0.41204161  0.84069820     0.14200
C3226       C  0.56671436  0.41277657  0.86979956    -0.20200
C3227       C  0.53907948  0.42861070  0.87325207    -0.06700
C3228       C  0.52551861  0.44207058  0.84605588     0.14100
C3229       C  0.49753086  0.46192714  0.84710461    -0.23500
H3230       H  0.53066641  0.45112929  0.79619665     0.15400
H3231       H  0.57711019  0.40276642  0.89052037     0.15500
C3232       C  0.61242929  0.39523849  0.83839032    -0.23500
H3233       H  0.50351018  0.48597330  0.83894907     0.05700
H3234       H  0.48686095  0.46287211  0.87084943     0.08900
H3235       H  0.48078643  0.45303768  0.83034441     0.08900
H3236       H  0.63159065  0.41186555  0.83221186     0.08900
H3237       H  0.61095160  0.37740247  0.82017418     0.08900
H3238       H  0.61809002  0.38336088  0.86091750     0.05700
C3239       C  0.67569761  0.42634705  0.99265232    -0.20100
C3240       C  0.64972506  0.41161582  0.97988903    -0.06700
C3241       C  0.65328370  0.39598209  0.95150482     0.14200
C3242       C  0.68078878  0.40025786  0.93378989    -0.20200
C3243       C  0.70492158  0.41939517  0.94423357    -0.06700
C3244       C  0.70306170  0.43107080  0.97486266     0.14100
C3245       C  0.72863568  0.45010952  0.98869943    -0.23500
H3246       H  0.67312234  0.43813587  0.01470431     0.15400
H3247       H  0.68312284  0.38921677  0.91129929     0.15500
C3248       C  0.62748776  0.37697231  0.93836617    -0.23500
H3249       H  0.71966976  0.47294130  0.99529368     0.05700
H3250       H  0.74845687  0.45435384  0.97214417     0.08900
H3251       H  0.73710035  0.43803092  0.01011975     0.08900
H3252       H  0.62090683  0.38734914  0.91549366     0.08900
H3253       H  0.60685457  0.37579366  0.95427131     0.08900
H3254       H  0.63532447  0.35302432  0.93476107     0.05700
C3255       C  0.67580078  0.05248525  0.98465620    -0.20100
C3256       C  0.64619636  0.06022399  0.97423502    -0.06700
C3257       C  0.64394251  0.07750698  0.94549310     0.14200
C3258       C  0.67080726  0.08560157  0.92783827    -0.20200
C3259       C  0.69988078  0.07561913  0.93709799    -0.06700
C3260       C  0.70249139  0.05935909  0.96612173     0.14100
C3261       C  0.73318354  0.04758695  0.97653249    -0.23500
H3262       H  0.67768470  0.03794063  0.00568861     0.15400
H3263       H  0.66890920  0.09880127  0.90591369     0.15500
C3264       C  0.61351723  0.08547025  0.93124493    -0.23500
H3265       H  0.73105473  0.03404334  0.99909277     0.05700
H3266       H  0.74948061  0.06730033  0.97984069     0.08900
H3267       H  0.74282153  0.03231664  0.95837910     0.08900
H3268       H  0.59349595  0.07595978  0.94524178     0.08900
H3269       H  0.61212575  0.07614653  0.90739868     0.08900
H3270       H  0.61183306  0.11097235  0.92868310     0.05700
C3271       C  0.65945624  0.04818270  0.59672817    -0.20100
C3272       C  0.63064289  0.05113359  0.61119354    -0.06700
C3273       C  0.62639378  0.07433623  0.63336652     0.14200
C3274       C  0.64863200  0.09854891  0.63461036    -0.20200
C3275       C  0.67506468  0.09883448  0.61480823    -0.06700
C3276       C  0.68066897  0.07281396  0.59591731     0.14100
C3277       C  0.70780816  0.07117059  0.57317869    -0.23500
H3278       H  0.66327843  0.02855842  0.58187413     0.15400
H3279       H  0.64567478  0.11685164  0.65118813     0.15500
C3280       C  0.60004975  0.07209874  0.65708015    -0.23500
H3281       H  0.70768249  0.04920855  0.56023468     0.05700
H3282       H  0.72981712  0.07239453  0.58565429     0.08900
H3283       H  0.70692367  0.09025935  0.55526370     0.08900
H3284       H  0.60415720  0.05296016  0.67426911     0.08900
H3285       H  0.57783051  0.06720946  0.64565254     0.08900
H3286       H  0.59804141  0.09367126  0.67042121     0.05700
C3287       C  0.65304420  0.42006302  0.59586846    -0.20100
C3288       C  0.62523683  0.41100956  0.61070631    -0.06700
C3289       C  0.62419549  0.38579039  0.63231235     0.14200
C3290       C  0.65156074  0.36980191  0.63848784    -0.20200
C3291       C  0.67940441  0.37861725  0.62281480    -0.06700
C3292       C  0.67980913  0.40400400  0.60073624     0.14100
C3293       C  0.70788148  0.41494175  0.58158712    -0.23500
H3294       H  0.65345215  0.43974417  0.57943762     0.15400
H3295       H  0.65131884  0.35072952  0.65558445     0.15500
C3296       C  0.59452136  0.37636124  0.64882914    -0.23500
H3297       H  0.70291688  0.43489636  0.56565216     0.05700
H3298       H  0.71594102  0.39637999  0.56630617     0.08900
H3299       H  0.72623607  0.42319113  0.59698942     0.08900
H3300       H  0.59753353  0.35533555  0.66388352     0.08900
H3301       H  0.57664883  0.37151795  0.63125078     0.08900
H3302       H  0.58660172  0.39539612  0.66377887     0.05700
C3303       C  0.90370167  0.18477775  0.93585918    -0.20100
C3304       C  0.89144396  0.17345266  0.90806397    -0.06700
C3305       C  0.87955084  0.14298185  0.90842224     0.14200
C3306       C  0.88867910  0.12189070  0.93202484    -0.20200
C3307       C  0.90573980  0.13246864  0.95737549    -0.06700
C3308       C  0.90895982  0.16476090  0.96147114     0.14100
C3309       C  0.92279957  0.17791666  0.99052515    -0.23500
H3310       H  0.91063770  0.20894374  0.93703012     0.15400
H3311       H  0.88451347  0.09728937  0.92953351     0.15500
C3312       C  0.85766977  0.13333017  0.88396854    -0.23500
H3313       H  0.90711351  0.19536843  0.00030047     0.05700
H3314       H  0.94551519  0.18917087  0.98454531     0.08900
H3315       H  0.92605389  0.15982504  0.00907433     0.08900
H3316       H  0.86800230  0.14021035  0.86104587     0.08900
H3317       H  0.83587447  0.14598032  0.88628116     0.08900
H3318       H  0.85230239  0.10813006  0.88567808     0.05700
C3319       C  0.55188643  0.17811136  0.95988459    -0.20100
C3320       C  0.54663393  0.15289375  0.94034704    -0.06700
C3321       C  0.55669344  0.15443608  0.90863058     0.14200
C3322       C  0.57218163  0.18122635  0.89736644    -0.20200
C3323       C  0.57775961  0.20622640  0.91710723    -0.06700
C3324       C  0.56757300  0.20477930  0.94864180     0.14100
C3325       C  0.57231647  0.23160251  0.96998646    -0.23500
H3326       H  0.54338600  0.17686841  0.98404612     0.15400
H3327       H  0.58018413  0.18259371  0.87300493     0.15500
C3328       C  0.55131728  0.12855162  0.88625477    -0.23500
H3329       H  0.56201069  0.22667908  0.99364436     0.05700
H3330       H  0.56138237  0.25251748  0.95988041     0.08900
H3331       H  0.59725092  0.23643464  0.97304825     0.08900
H3332       H  0.53703590  0.13686025  0.86647930     0.08900
H3333       H  0.53932646  0.10823719  0.89770009     0.08900
H3334       H  0.57378748  0.12082269  0.87663777     0.05700
C3335       C  0.90131809  0.13931649  0.56187219    -0.20100
C3336       C  0.89745831  0.11070648  0.57763576    -0.06700
C3337       C  0.88273705  0.10903408  0.60757369     0.14200
C3338       C  0.87332202  0.13662959  0.62156771    -0.20200
C3339       C  0.87972958  0.16545372  0.60644100    -0.06700
C3340       C  0.89429540  0.16662974  0.57623243     0.14100
C3341       C  0.90547645  0.19633041  0.55971429    -0.23500
H3342       H  0.91394671  0.14052833  0.53962376     0.15400
H3343       H  0.86262289  0.13586585  0.64485165     0.15500
C3344       C  0.87902207  0.07859642  0.62523523    -0.23500
H3345       H  0.91895173  0.19208543  0.53780373     0.05700
H3346       H  0.92084696  0.20964932  0.57510924     0.08900
H3347       H  0.88583728  0.21028376  0.55256620     0.08900
H3348       H  0.90182622  0.06794021  0.62853867     0.08900
H3349       H  0.86407030  0.06270910  0.61189794     0.08900
H3350       H  0.86847111  0.08169801  0.64880136     0.05700
C3351       C  0.51535867  0.16477770  0.56073907    -0.20100
C3352       C  0.53125850  0.14003922  0.57468848    -0.06700
C3353       C  0.56026455  0.14611493  0.58764207     0.14200
C3354       C  0.57466424  0.17508257  0.58245065    -0.20200
C3355       C  0.56005827  0.19897555  0.56590582    -0.06700
C3356       C  0.52906399  0.19440783  0.55696165     0.14100
C3357       C  0.50997529  0.21982758  0.54297365    -0.23500
H3358       H  0.49278220  0.16047185  0.55101878     0.15400
H3359       H  0.59744909  0.17918364  0.59178393     0.15500
C3360       C  0.57681323  0.12210517  0.60619464    -0.23500
H3361       H  0.50225961  0.21333326  0.51927137     0.05700
H3362       H  0.52267833  0.24229273  0.54059670     0.08900
H3363       H  0.48929646  0.22311101  0.55826992     0.08900
H3364       H  0.59957362  0.11805292  0.59484768     0.08900
H3365       H  0.56343476  0.10000926  0.60777216     0.08900
H3366       H  0.58038237  0.13046458  0.63031150     0.05700
C3367       C  0.75152207  0.66436296  0.05896898     0.42600
N3368       N  0.74583986  0.69523466  0.01872799     0.01500
C3369       C  0.84805465  0.78056094  0.42623647    -0.06400
H3370       H  0.84936151  0.80166149  0.06027031     0.07000
C3371       C  0.74049336  0.83936704  0.03754821    -0.06700
Co3372     Co  0.80273731  0.71800644  0.48904502     0.74200
N3373       N  0.82907482  0.77172294  0.02547976    -0.25900
Co3374     Co  0.81102649  0.79818910  0.98765392     0.74100
C3375       C  0.76564467  0.84798593  0.05853603     0.42700
N3376       N  0.70041250  0.77646762  0.01077089     0.01100
N3377       N  0.78336202  0.82229492  0.01939858     0.01200
N3378       N  0.84255138  0.72934896  0.43218351    -0.46700
H3379       H  0.80452111  0.66848010  0.05463032     0.07000
N3380       N  0.82501542  0.74147415  0.02526669     0.01500
N3381       N  0.78595004  0.82294619  0.45063474     0.01300
C3382       C  0.77815875  0.85416982  0.41093630     0.42900
N3383       N  0.69978056  0.74593688  0.01163497    -0.25400
C3384       C  0.79136246  0.67150967  0.43382217    -0.06300
N3385       N  0.73048642  0.67813176  0.04034724    -0.46500
N3386       N  0.79974663  0.84312678  0.43062968    -0.46700
C3387       C  0.76475233  0.66154530  0.41555694     0.42600
N3388       N  0.82963497  0.74288988  0.45601098     0.01500
N3389       N  0.70531762  0.74401322  0.44318161    -0.25400
N3390       N  0.77594076  0.69373272  0.02196476    -0.25900
N3391       N  0.70457694  0.77438732  0.44271444     0.01100
H3392       H  0.68346871  0.70967393  0.41521603     0.07000
H3393       H  0.72626959  0.84181579  0.41287774     0.07100
N3394       N  0.83195031  0.77328706  0.45362690    -0.25900
N3395       N  0.75330746  0.82314151  0.01468522    -0.25500
N3396       N  0.75157771  0.69609463  0.44901295     0.01500
C3397       C  0.84659545  0.74859746  0.06986997     0.42900
C3398       C  0.67718572  0.73604045  0.03165153    -0.06800
N3399       N  0.75601913  0.82058800  0.44629513    -0.25500
H3400       H  0.71603550  0.84339412  0.04005085     0.07100
N3401       N  0.83473766  0.72745331  0.05072979    -0.46700
H3402       H  0.66989486  0.71212499  0.03551891     0.07000
C3403       C  0.67567074  0.76122121  0.40394003     0.42700
C3404       C  0.78188236  0.67469803  0.04670343    -0.06300
Co3405     Co  0.72412844  0.71911746  0.48066880     0.73800
N3406       N  0.67805572  0.78815758  0.02857202    -0.46500
C3407       C  0.85513644  0.75050277  0.41183577     0.43000
N3408       N  0.74101937  0.67788819  0.42707164    -0.46500
Co3409     Co  0.73073277  0.79982045  0.97817278     0.73900
C3410       C  0.74943355  0.83736353  0.42058252    -0.06800
C3411       C  0.84331375  0.77866317  0.05278515    -0.06300
N3412       N  0.78129580  0.69338296  0.45325407    -0.25900
N3413       N  0.79164228  0.83624623  0.04567535    -0.46600
H3414       H  0.85207860  0.80359252  0.41636897     0.07000
C3415       C  0.68903016  0.73376071  0.41908738    -0.06800
Cl3416     Cl  0.76832844  0.75890066  0.98415949    -0.49800
C3417       C  0.66266328  0.76396023  0.04331161     0.42800
H3418       H  0.81363266  0.66149381  0.43446440     0.07000
N3419       N  0.68642907  0.78549899  0.42043379    -0.46500
C3420       C  0.62983140  0.76442107  0.05482568     0.03300
C3421       C  0.60857707  0.74538365  0.03943270    -0.12900
C3422       C  0.57922505  0.73877747  0.05256940     0.00800
C3423       C  0.56887963  0.75549016  0.07793113    -0.11400
C3424       C  0.58983843  0.77223837  0.09571466     0.03300
C3425       C  0.62057405  0.77723841  0.08392769    -0.10800
H3426       H  0.61620596  0.73213752  0.01954960     0.08900
H3427       H  0.54623104  0.74961630  0.08807367     0.06400
H3428       H  0.63751694  0.78861547  0.09825329     0.06300
C3429       C  0.86255325  0.73736759  0.09874995     0.03300
C3430       C  0.85589132  0.70595925  0.10665173    -0.12900
C3431       C  0.87915767  0.68707717  0.11707017     0.00800
C3432       C  0.90451781  0.70066063  0.13102167    -0.11400
C3433       C  0.90969276  0.73301315  0.12947165     0.03300
C3434       C  0.88916565  0.75156730  0.11165626    -0.10800
H3435       H  0.83585945  0.69440727  0.09712750     0.08900
H3436       H  0.92201415  0.68534627  0.13983219     0.06400
H3437       H  0.89507167  0.77553994  0.10590140     0.06300
C3438       C  0.60277924  0.76247998  0.35393517     0.03300
C3439       C  0.58251998  0.74716103  0.37539346    -0.12900
C3440       C  0.59279121  0.73602074  0.40412092     0.00800
C3441       C  0.62235401  0.74349753  0.41365447    -0.11400
C3442       C  0.64329878  0.75960878  0.39333002     0.03300
C3443       C  0.63364409  0.76887467  0.36280707    -0.10800
H3444       H  0.55946667  0.74052623  0.36823375     0.08900
H3445       H  0.63000506  0.73405145  0.43599683     0.06400
H3446       H  0.65008163  0.77926271  0.34591241     0.06300
C3447       C  0.91492652  0.72789182  0.34971664     0.03300
C3448       C  0.90646359  0.69599552  0.35363120    -0.12900
C3449       C  0.87789926  0.68648071  0.36717589     0.00800
C3450       C  0.85689018  0.70965224  0.37353209    -0.11400
C3451       C  0.86823507  0.73932758  0.38105838     0.03300
C3452       C  0.89676510  0.74952360  0.36653137    -0.10800
H3453       H  0.92295555  0.67843536  0.34856464     0.08900
H3454       H  0.83431828  0.70208994  0.38264243     0.06400
H3455       H  0.90557378  0.77276593  0.36995643     0.06300
N3456       N  0.96895421  0.61063347  0.46016043    -0.36400
N3457       N  0.52723970  0.60570626  0.99701598    -0.57000
N3458       N  0.97967431  0.57920942  0.05083970    -0.36400
N3459       N  0.93269282  0.58149462  0.00069433    -0.57000
C3460       C  0.49530456  0.63123647  0.45029242     0.27100
C3461       C  0.94163160  0.61768026  0.44775102     0.27100
C3462       C  0.50711639  0.60193210  0.06468286     0.27100
C3463       C  0.95366787  0.58169415  0.06863319     0.27100
C3464       C  0.53575284  0.61676230  0.48746555     0.35800
C3465       C  0.54596798  0.60307092  0.02165146     0.35800
C3466       C  0.90846868  0.58279562  0.48098261     0.35800
C3467       C  0.91586586  0.57143591  0.02631220     0.35800
C3468       C  0.48396412  0.65110964  0.42751337    -0.21700
C3469       C  0.94518335  0.64452132  0.42894592    -0.21700
C3470       C  0.49720382  0.61014604  0.09429467    -0.21700
C3471       C  0.96124758  0.59350766  0.09771396    -0.21700
C3472       C  0.56573046  0.61683956  0.49771729    -0.22800
C3473       C  0.57623351  0.60869735  0.01148475    -0.22800
C3474       C  0.88084245  0.56820165  0.48997709    -0.22800
C3475       C  0.88617117  0.56388931  0.01731824    -0.22800
C3476       C  0.52600131  0.63245335  0.46045962    -0.18100
C3477       C  0.91394959  0.60009455  0.45248758    -0.18100
C3478       C  0.92304841  0.57969161  0.05739031    -0.18100
C3479       C  0.53552954  0.61234125  0.05114436    -0.18100
H3480       H  0.49614765  0.66939136  0.41416200     0.14800
H3481       H  0.92852029  0.65638539  0.41512883     0.14800
H3482       H  0.51035332  0.62244469  0.11155065     0.14800
H3483       H  0.94583501  0.59902254  0.11694911     0.14800
H3484       H  0.58610327  0.62637115  0.48565050     0.13100
H3485       H  0.59637216  0.61115800  0.02567087     0.13100
H3486       H  0.86080287  0.56486575  0.47559328     0.13100
H3487       H  0.86666815  0.55792404  0.03278738     0.13100
H3488       H  0.97354229  0.59129025  0.47425707     0.26300
H3489       H  0.98091570  0.57217165  0.02766523     0.26300
C3490       C  0.59073653  0.66487994  0.22884478     0.42600
N3491       N  0.55663001  0.69918093  0.24160498     0.01500
C3492       C  0.94920653  0.77470394  0.15414132    -0.06400
H3493       H  0.56001418  0.82257514  0.13468729     0.07000
C3494       C  0.56602531  0.84246558  0.25635344    -0.06700
Co3495     Co  0.01877441  0.71798768  0.19023858     0.74200
N3496       N  0.54220960  0.78475838  0.16420456    -0.25900
Co3497     Co  0.00631906  0.79837627  0.19320089     0.74100
C3498       C  0.57677977  0.86100819  0.22872604     0.42700
N3499       N  0.55037983  0.77479026  0.29472587     0.01100
N3500       N  0.53916207  0.82996938  0.21643892     0.01200
N3501       N  0.96082089  0.72428666  0.15244860    -0.46700
H3502       H  0.57758126  0.67024174  0.17652264     0.07000
N3503       N  0.54829217  0.75492478  0.16502182     0.01500
N3504       N  0.97023490  0.81622787  0.22214366     0.01300
C3505       C  0.93247293  0.84193459  0.24261376     0.42900
N3506       N  0.55410688  0.74493659  0.29166227    -0.25400
C3507       C  0.96662067  0.66751557  0.20411247    -0.06300
N3508       N  0.57705727  0.67970422  0.25286363    -0.46500
N3509       N  0.94594100  0.83368240  0.21478765    -0.46700
C3510       C  0.95327116  0.65226253  0.23250872     0.42600
N3511       N  0.98188137  0.73971243  0.16790291     0.01500
N3512       N  0.98454747  0.72981270  0.29828233    -0.25400
N3513       N  0.55529629  0.69917066  0.21071362    -0.25900
N3514       N  0.97912329  0.75953289  0.30070252     0.01100
H3515       H  0.96370917  0.68852214  0.31850149     0.07000
H3516       H  0.94955628  0.83047974  0.29258409     0.07100
N3517       N  0.97576964  0.76945119  0.16948513    -0.25900
N3518       N  0.54244132  0.82503011  0.24692664    -0.25500
N3519       N  0.98815581  0.68588491  0.24546376     0.01500
C3520       C  0.58061612  0.77430624  0.12941777     0.42900
C3521       C  0.57971032  0.73688229  0.30662209    -0.06800
N3522       N  0.97319995  0.81268867  0.25291280    -0.25500
H3523       H  0.57288078  0.84447800  0.28052157     0.07100
N3524       N  0.57056221  0.74797639  0.14485105    -0.46700
H3525       H  0.58749668  0.71341641  0.30976640     0.07000
C3526       C  0.94412752  0.73607251  0.33081940     0.42700
C3527       C  0.57577274  0.67804368  0.20042639    -0.06300
Co3528     Co  0.02023817  0.71254886  0.27067375     0.73800
N3529       N  0.57152826  0.78736590  0.31291776    -0.46500
C3530       C  0.93927411  0.74428301  0.14284271     0.43000
N3531       N  0.96834649  0.66455032  0.25705154    -0.46500
Co3532     Co  0.00975104  0.79100488  0.27520675     0.73900
C3533       C  0.95120257  0.82809967  0.26735024    -0.06800
C3534       C  0.56111006  0.79863746  0.14224644    -0.09300
N3535       N  0.98777140  0.68789499  0.21446019    -0.25900
N3536       N  0.55834490  0.85217361  0.20493370    -0.46600
H3537       H  0.93808442  0.79676425  0.15170994     0.07000
C3538       C  0.96414106  0.71346808  0.31624054    -0.06800
Cl3539     Cl  0.01354059  0.75493874  0.23235018    -0.49800
C3540       C  0.59151514  0.76500227  0.32138555     0.42800
H3541       H  0.96214575  0.66295297  0.17973544     0.07000
N3542       N  0.95482238  0.76443910  0.31982107    -0.46500
C3543       C  0.76046315  0.85730407  0.09203372     0.03300
C3544       C  0.73185116  0.84729255  0.10536708    -0.12900
C3545       C  0.71803323  0.86411092  0.12879878     0.00800
C3546       C  0.73684556  0.88112347  0.14803874    -0.11400
C3547       C  0.76446152  0.89436233  0.13545444     0.03300
C3548       C  0.77691341  0.88187361  0.10702086    -0.10800
H3549       H  0.71709576  0.83132325  0.09313191     0.08900
H3550       H  0.72569500  0.89143186  0.16816151     0.06400
H3551       H  0.79640947  0.89332715  0.09498146     0.06300
C3552       C  0.74291044  0.64417787  0.08690189     0.03300
C3553       C  0.71117833  0.64101472  0.09434271    -0.12900
C3554       C  0.70095949  0.62180034  0.11932293     0.00800
C3555       C  0.72239195  0.61236874  0.14114427    -0.11400
C3556       C  0.75268719  0.60701790  0.13037373     0.03300
C3557       C  0.76381430  0.62483403  0.10362267    -0.10800
H3558       H  0.69415422  0.65009205  0.07843776     0.08900
H3559       H  0.71344630  0.59970603  0.16181793     0.06400
H3560       H  0.78708351  0.62191105  0.09463096     0.06300
C3561       C  0.75828257  0.62936547  0.40635933     0.03300
C3562       C  0.73871968  0.61236937  0.42717267    -0.12900
C3563       C  0.72219625  0.58670935  0.41748311     0.00800
C3564       C  0.72767898  0.57559028  0.38713329    -0.11400
C3565       C  0.74978427  0.59032708  0.36634639     0.03300
C3566       C  0.76471548  0.61792697  0.37603627    -0.10800
H3567       H  0.73339565  0.62136782  0.45020933     0.08900
H3568       H  0.71428745  0.55580662  0.37959906     0.06400
H3569       H  0.77946125  0.63126706  0.35959072     0.06300
C3570       C  0.76131914  0.92950757  0.36950698     0.03300
C3571       C  0.73876591  0.93836808  0.39178211    -0.12900
C3572       C  0.73653976  0.92355247  0.42158027     0.00800
C3573       C  0.75812800  0.90177888  0.42970924    -0.11400
C3574       C  0.77521266  0.88782330  0.40600184     0.03300
C3575       C  0.77843858  0.90272054  0.37612993    -0.10800
H3576       H  0.72213386  0.95575324  0.38561526     0.08900
H3577       H  0.75552784  0.88993527  0.45251689     0.06400
H3578       H  0.79189193  0.89229075  0.35764337     0.06300
N3579       N  0.61147262  0.54945213  0.03908613    -0.36400
N3580       N  0.59559318  0.98057114  0.09277601    -0.57000
N3581       N  0.60613226  0.93761733  0.04060692    -0.36400
N3582       N  0.61064766  0.98766564  0.48830155    -0.57000
C3583       C  0.59266972  0.53950053  0.06353948     0.27100
C3584       C  0.60011042  0.54505551  0.51659734     0.27100
C3585       C  0.59961183  0.91819917  0.06557755     0.27100
C3586       C  0.60619174  0.92284486  0.51090125     0.27100
C3587       C  0.59825996  0.50573139  0.10958092     0.35800
C3588       C  0.60227228  0.95507128  0.10994068     0.35800
C3589       C  0.61717425  0.51160911  0.47575283     0.35800
C3590       C  0.62082762  0.96412689  0.47137851     0.35800
C3591       C  0.56617763  0.52589140  0.05221038    -0.21700
C3592       C  0.57141324  0.53129096  0.52378159    -0.21700
C3593       C  0.59895678  0.88790911  0.05541733    -0.21700
C3594       C  0.59929227  0.89202710  0.51766770    -0.21700
C3595       C  0.60994266  0.49685805  0.13845555    -0.22800
C3596       C  0.61339225  0.96350239  0.13896287    -0.22800
C3597       C  0.63353287  0.50353480  0.44903701    -0.22800
C3598       C  0.63643986  0.97532068  0.44433849    -0.22800
C3599       C  0.60235287  0.53540111  0.09497257    -0.18100
C3600       C  0.61693060  0.54127116  0.48821293    -0.18100
C3601       C  0.62207343  0.93352248  0.48325436    -0.18100
C3602       C  0.60586746  0.92546546  0.09718860    -0.18100
H3603       H  0.54753247  0.51468712  0.06584669     0.14800
H3604       H  0.55589865  0.51956182  0.50846298     0.14800
H3605       H  0.59712151  0.86707068  0.07012032     0.14800
H3606       H  0.60269916  0.87279857  0.50230779     0.14800
H3607       H  0.62027161  0.51158602  0.15568706     0.13100
H3608       H  0.62237828  0.94834732  0.15710448     0.13100
H3609       H  0.64658205  0.51847245  0.43263835     0.13100
H3610       H  0.64822315  0.96249402  0.42648881     0.13100
H3611       H  0.63372732  0.55881349  0.03983264     0.26300
H3612       H  0.61191220  0.96103081  0.04181275     0.26300
C3613       C  0.58769201  0.89330818  0.23333954     0.03300
C3614       C  0.56950209  0.90930373  0.25470942    -0.12900
C3615       C  0.58320791  0.92946910  0.27527084     0.00800
C3616       C  0.61349054  0.94027774  0.26915695    -0.11400
C3617       C  0.63137021  0.92846105  0.24427689     0.03300
C3618       C  0.61862665  0.90367890  0.22709375    -0.10800
H3619       H  0.54617159  0.90088292  0.26023340     0.08900
H3620       H  0.62358699  0.95657494  0.28510111     0.06400
H3621       H  0.63319023  0.89125665  0.21100516     0.06300
C3622       C  0.89330110  0.58605320  0.23441042     0.03300
C3623       C  0.90905125  0.56505298  0.25352924    -0.12900
C3624       C  0.93815765  0.57227198  0.26474334     0.00800
C3625       C  0.95386083  0.59865553  0.25248171    -0.11400
C3626       C  0.93842145  0.62105479  0.23483040     0.03300
C3627       C  0.90784525  0.61466533  0.22529409    -0.10800
H3628       H  0.89666335  0.54484049  0.26325831     0.08900
H3629       H  0.97672788  0.60408000  0.26088514     0.06400
H3630       H  0.89504451  0.63224408  0.21285802     0.06300
C3631       C  0.60158829  0.63218394  0.23463886     0.03300
C3632       C  0.62780026  0.61850385  0.22009718    -0.12900
C3633       C  0.63618022  0.58768432  0.22910174     0.00800
C3634       C  0.61721175  0.57080032  0.25089801    -0.11400
C3635       C  0.59419999  0.58514194  0.26818698     0.03300
C3636       C  0.58669865  0.61555063  0.25972586    -0.10800
H3637       H  0.64246552  0.63220879  0.20394145     0.08900
H3638       H  0.62310054  0.54725856  0.25742205     0.06400
H3639       H  0.56969516  0.62699765  0.27394160     0.06300
C3640       C  0.86891986  0.90472847  0.25151065     0.03300
C3641       C  0.85843809  0.89375922  0.28143577    -0.12900
C3642       C  0.87414691  0.87104764  0.29741561     0.00800
C3643       C  0.89004689  0.84992118  0.27989996    -0.11400
C3644       C  0.90271232  0.85856965  0.25000370     0.03300
C3645       C  0.89207560  0.88694965  0.23548850    -0.10800
H3646       H  0.84241233  0.90673918  0.29540214     0.08900
H3647       H  0.89810664  0.82982281  0.29274971     0.06400
H3648       H  0.90326962  0.89620806  0.21416210     0.06300
N3649       N  0.93215744  0.97984824  0.41163280    -0.36400
N3650       N  0.00010519  0.55091960  0.39379571    -0.57000
N3651       N  0.55653512  0.98921352  0.38847633    -0.36400
N3652       N  0.97479293  0.91638593  0.40346835    -0.57000
C3653       C  0.92940794  0.50858147  0.40746591     0.27100
C3654       C  0.91195585  0.95602306  0.40773947     0.27100
C3655       C  0.56132438  0.51753778  0.40940619     0.27100
C3656       C  0.54937857  0.96558474  0.40910758     0.27100
C3657       C  0.97490469  0.54202452  0.41063141     0.35800
C3658       C  0.52098614  0.55062371  0.40312176     0.35800
C3659       C  0.94956937  0.91803543  0.42254924     0.35800
C3660       C  0.50627023  0.92667502  0.41643017     0.35800
C3661       C  0.89915136  0.50215686  0.39965874    -0.21700
C3662       C  0.88636565  0.96691027  0.39201420    -0.21700
C3663       C  0.55845283  0.51049353  0.44101786    -0.21700
C3664       C  0.55459853  0.97534346  0.43928069    -0.21700
C3665       C  0.98177231  0.53876043  0.44199595    -0.22800
C3666       C  0.50790299  0.55222367  0.43329480    -0.22800
C3667       C  0.95826711  0.92690702  0.45202939    -0.22800
C3668       C  0.49815165  0.93040715  0.44794451    -0.22800
C3669       C  0.94738590  0.53418355  0.39584710    -0.18100
C3670       C  0.92050351  0.92448748  0.41006475    -0.18100
C3671       C  0.53276809  0.93894790  0.39969907    -0.18100
C3672       C  0.55242455  0.54573428  0.39550811    -0.18100
H3673       H  0.88368899  0.51757286  0.38758345     0.14800
H3674       H  0.86718671  0.95327679  0.38355608     0.14800
H3675       H  0.55840802  0.52714767  0.45917743     0.14800
H3676       H  0.55327260  0.96231900  0.46120413     0.14800
H3677       H  0.96632975  0.53146261  0.46125078     0.13100
H3678       H  0.51928864  0.55892631  0.45449204     0.13100
H3679       H  0.94308433  0.93283689  0.47137237     0.13100
H3680       H  0.51187416  0.93809226  0.46700480     0.13100
H3681       H  0.95465401  0.97828893  0.41963615     0.26300
H3682       H  0.55282281  0.99022172  0.36441302     0.26300
C3683       C  0.66396708  0.94037183  0.23973116     0.42600
N3684       N  0.70143581  0.97282681  0.24891808     0.01500
C3685       C  0.79203851  0.56319732  0.15312089    -0.06400
H3686       H  0.82173271  0.93756259  0.15405668     0.07000
C3687       C  0.84911029  0.95880858  0.26851777    -0.06700
Co3688     Co  0.72695948  0.50061905  0.19164212     0.74200
N3689       N  0.78713353  0.96890793  0.17149965    -0.25900
Co3690     Co  0.80749059  0.50327828  0.19707820     0.74100
C3691       C  0.86001629  0.93787120  0.24403200     0.42700
N3692       N  0.77851394  0.97924418  0.30252138     0.01100
N3693       N  0.83280857  0.97485403  0.22369758     0.01200
N3694       N  0.74144708  0.55381994  0.14775626    -0.46700
H3695       H  0.67328247  0.94544653  0.18621502     0.07000
N3696       N  0.75667527  0.96803161  0.17065423     0.01500
N3697       N  0.82932613  0.54030271  0.21989028     0.01300
C3698       C  0.86009260  0.57883013  0.23051694     0.42900
N3699       N  0.74813198  0.97800738  0.30018966    -0.25400
C3700       C  0.67978154  0.55646673  0.19837270    -0.06300
N3701       N  0.67865720  0.95598282  0.26237224    -0.46500
N3702       N  0.85081338  0.55969457  0.20760724    -0.46700
C3703       C  0.66769027  0.57466622  0.22477419     0.42600
N3704       N  0.75381012  0.53190480  0.16490768     0.01500
N3705       N  0.74230068  0.54525105  0.29590429    -0.25400
N3706       N  0.70263992  0.97005341  0.21808906    -0.25900
N3707       N  0.77244218  0.54691730  0.29925669     0.01100
H3708       H  0.70429193  0.56508208  0.32090698     0.07000
H3709       H  0.84442335  0.57601544  0.28257417     0.07100
N3710       N  0.78384211  0.53581864  0.16805679    -0.25900
N3711       N  0.83158013  0.97966924  0.25424396    -0.25500
N3712       N  0.70016783  0.54049420  0.24154210     0.01500
C3713       C  0.77002801  0.92684072  0.14614355     0.42900
C3714       C  0.73639857  0.95743827  0.32152893    -0.06800
N3715       N  0.82449940  0.54456351  0.25018296    -0.25500
H3716       H  0.85234145  0.95735351  0.29367390     0.07100
N3717       N  0.74593255  0.94389051  0.15576528    -0.46700
H3718       H  0.71207763  0.95306619  0.32637557     0.07000
C3719       C  0.75390000  0.57829560  0.33375867     0.42700
C3720       C  0.68009253  0.94981844  0.21003687    -0.06300
Co3721     Co  0.72090251  0.50920750  0.27240441     0.73800
N3722       N  0.78829912  0.96044743  0.32539624    -0.46500
C3723       C  0.76332129  0.57520030  0.13937923     0.43000
N3724       N  0.68155347  0.56256586  0.25042288    -0.46500
Co3725     Co  0.80407438  0.01353252  0.27567966     0.73900
C3726       C  0.84156840  0.56896789  0.25856687    -0.06800
C3727       C  0.79776449  0.94359132  0.15676484    -0.06300
N3728       N  0.70019687  0.53650137  0.21092583    -0.25900
N3729       N  0.84875047  0.94965228  0.21663128    -0.46600
H3730       H  0.81456473  0.57428981  0.15352751     0.07000
C3731       C  0.72885992  0.56437768  0.31605331    -0.06800
Cl3732     Cl  0.76382170  0.50626794  0.23502128    -0.49800
C3733       C  0.76292910  0.94545091  0.33809894     0.42800
H3734       H  0.67311139  0.55717846  0.17404152     0.07000
N3735       N  0.78026469  0.56574441  0.32229101    -0.46500
C3736       C  0.87191775  0.87464923  0.35624870    -0.20100
C3737       C  0.88784667  0.88047992  0.32747359    -0.06700
C3738       C  0.91541645  0.89894265  0.32705006     0.14200
C3739       C  0.92604722  0.91060703  0.35495764    -0.20200
C3740       C  0.91015087  0.90551819  0.38350807    -0.06700
C3741       C  0.88269715  0.88730858  0.38433670     0.14100
C3742       C  0.86384146  0.88214910  0.41412611    -0.23500
H3743       H  0.85046893  0.86127853  0.35661357     0.15400
H3744       H  0.94602699  0.92583044  0.35417767     0.15500
C3745       C  0.93329876  0.90853493  0.29736533    -0.23500
H3746       H  0.84067272  0.89198460  0.41095149     0.05700
H3747       H  0.87441042  0.89315710  0.43465215     0.08900
H3748       H  0.86149521  0.85700995  0.41956884     0.08900
H3749       H  0.91881506  0.92252759  0.28158399     0.08900
H3750       H  0.94212593  0.88807782  0.28556951     0.08900
H3751       H  0.95392052  0.92310824  0.30209823     0.05700
C3752       C  0.54462490  0.57081142  0.34170079    -0.20100
C3753       C  0.56429537  0.55482121  0.36241011    -0.06700
C3754       C  0.59434084  0.54788848  0.35038782     0.14200
C3755       C  0.60263744  0.55615623  0.31903373    -0.20200
C3756       C  0.58209211  0.57088590  0.29861243    -0.06700
C3757       C  0.55197786  0.57610693  0.30988355     0.14100
C3758       C  0.52627473  0.58577157  0.28881035    -0.23500
H3759       H  0.52256370  0.57905348  0.34959555     0.15400
H3760       H  0.62616290  0.55246198  0.31112037     0.15500
C3761       C  0.61948836  0.53377687  0.36966075    -0.23500
H3762       H  0.50729512  0.56831852  0.29149311     0.05700
H3763       H  0.53297519  0.58654915  0.26350744     0.08900
H3764       H  0.51779139  0.60870945  0.29574696     0.08900
H3765       H  0.62392489  0.50999029  0.36174845     0.08900
H3766       H  0.61418167  0.53309485  0.39495924     0.08900
H3767       H  0.64108213  0.54795596  0.36664535     0.05700
C3768       C  0.95272463  0.58222388  0.31888136    -0.20100
C3769       C  0.94587514  0.56013838  0.29651836    -0.06700
C3770       C  0.94098258  0.52897629  0.30664912     0.14200
C3771       C  0.94017970  0.52151917  0.33903236    -0.20200
C3772       C  0.94503255  0.54423470  0.36177145    -0.06700
C3773       C  0.95265123  0.57492189  0.35083534     0.14100
C3774       C  0.96102970  0.60123412  0.37149732    -0.23500
H3775       H  0.95648641  0.60629489  0.31171650     0.15400
H3776       H  0.93681369  0.49746824  0.34636814     0.15500
C3777       C  0.93770287  0.50303538  0.28395929    -0.23500
H3778       H  0.94645110  0.62141787  0.36635797     0.05700
H3779       H  0.98549975  0.60842008  0.36700064     0.08900
H3780       H  0.95776814  0.59486217  0.39636745     0.08900
H3781       H  0.95591646  0.48593575  0.28834114     0.08900
H3782       H  0.94052354  0.51108891  0.25906119     0.08900
H3783       H  0.91472187  0.49143869  0.28736597     0.05700
C3784       C  0.54072511  0.94604529  0.31083386    -0.20100
C3785       C  0.56881820  0.93102911  0.30699767    -0.06700
C3786       C  0.58052822  0.91343768  0.33246645     0.14200
C3787       C  0.56486679  0.91291710  0.36157751    -0.20200
C3788       C  0.53864924  0.93055732  0.36647775    -0.06700
C3789       C  0.52575680  0.94667479  0.34041402     0.14100
C3790       C  0.49899547  0.96807024  0.34362377    -0.23500
H3791       H  0.53118412  0.95854974  0.29095341     0.15400
H3792       H  0.57446234  0.90051813  0.38143423     0.15500
C3793       C  0.60973821  0.89533471  0.32923234    -0.23500
H3794       H  0.50648173  0.99209833  0.33683831     0.05700
H3795       H  0.48917706  0.96830087  0.36780315     0.08900
H3796       H  0.48077111  0.96115809  0.32736533     0.08900
H3797       H  0.62966990  0.91135237  0.32419237     0.08900
H3798       H  0.60762616  0.87878686  0.30989052     0.08900
H3799       H  0.61469441  0.88187650  0.35111128     0.05700
C3800       C  0.67751832  0.92875758  0.48831230    -0.20100
C3801       C  0.65070945  0.91773276  0.47375836    -0.06700
C3802       C  0.65340778  0.90457082  0.44392314     0.14200
C3803       C  0.68177462  0.90696011  0.42746483    -0.20200
C3804       C  0.70733581  0.92237394  0.44017841    -0.06700
C3805       C  0.70566781  0.93198598  0.47157041     0.14100
C3806       C  0.73282083  0.94758893  0.48660439    -0.23500
H3807       H  0.67533333  0.93895742  0.51123212     0.15400
H3808       H  0.68365883  0.89771888  0.40406946     0.15500
C3809       C  0.62600261  0.89107211  0.42771510    -0.23500
H3810       H  0.72693161  0.95534230  0.51061827     0.05700
H3811       H  0.74040349  0.96825200  0.47213447     0.08900
H3812       H  0.75222268  0.93140238  0.48857937     0.08900
H3813       H  0.62199946  0.90489563  0.40587947     0.08900
H3814       H  0.60475463  0.89107263  0.44272939     0.08900
H3815       H  0.63063731  0.86680503  0.42153877     0.05700
C3816       C  0.67291809  0.55337827  0.48603740    -0.20100
C3817       C  0.64310906  0.56191475  0.47694794    -0.06700
C3818       C  0.64011417  0.57992201  0.44889351     0.14200
C3819       C  0.66624594  0.58717581  0.42986052    -0.20200
C3820       C  0.69539736  0.57625633  0.43757923    -0.06700
C3821       C  0.69897519  0.55994557  0.46646345     0.14100
C3822       C  0.72998336  0.54807151  0.47577660    -0.23500
H3823       H  0.67530340  0.53862829  0.50685234     0.15400
H3824       H  0.66371728  0.60089502  0.40834812     0.15500
C3825       C  0.60939208  0.59007659  0.43721821    -0.23500
H3826       H  0.72859491  0.53478334  0.49852441     0.05700
H3827       H  0.74654765  0.56771914  0.47829412     0.08900
H3828       H  0.73884173  0.53254838  0.45744523     0.08900
H3829       H  0.60911768  0.61572809  0.43613883     0.08900
H3830       H  0.58983340  0.58121184  0.45227387     0.08900
H3831       H  0.60591099  0.58168421  0.41321047     0.05700
C3832       C  0.65682206  0.55181194  0.09192147    -0.20100
C3833       C  0.62787268  0.55538945  0.10603844    -0.06700
C3834       C  0.62374554  0.57869799  0.12823385     0.14200
C3835       C  0.64777445  0.60067620  0.13221911    -0.20200
C3836       C  0.67516535  0.59971164  0.11405028    -0.06700
C3837       C  0.67959798  0.57479160  0.09348085     0.14100
C3838       C  0.70754584  0.57249870  0.07189675    -0.23500
H3839       H  0.66046716  0.53224583  0.07695121     0.15400
H3840       H  0.64504520  0.61881213  0.14901047     0.15500
C3841       C  0.59436389  0.58018380  0.14766343    -0.23500
H3842       H  0.70626394  0.55170559  0.05717754     0.05700
H3843       H  0.72882730  0.57079994  0.08555078     0.08900
H3844       H  0.70915431  0.59289972  0.05549612     0.08900
H3845       H  0.59158039  0.55899580  0.16285409     0.08900
H3846       H  0.57408135  0.58185698  0.13229312     0.08900
H3847       H  0.59459057  0.60048089  0.16308613     0.05700
C3848       C  0.66092664  0.91882968  0.09318296    -0.20100
C3849       C  0.63346874  0.90924595  0.10833263    -0.06700
C3850       C  0.63328462  0.88471675  0.13074978     0.14200
C3851       C  0.66115456  0.86979527  0.13720657    -0.20200
C3852       C  0.68858117  0.87877079  0.12085212    -0.06700
C3853       C  0.68815993  0.90366292  0.09815051     0.14100
C3854       C  0.71559732  0.91494752  0.07819901    -0.23500
H3855       H  0.66059504  0.93805507  0.07621277     0.15400
H3856       H  0.66155586  0.85118519  0.15479354     0.15500
C3857       C  0.60388668  0.87465489  0.14745993    -0.23500
H3858       H  0.70978910  0.93423360  0.06171227     0.05700
H3859       H  0.72390187  0.89631464  0.06323322     0.08900
H3860       H  0.73396786  0.92423331  0.09296544     0.08900
H3861       H  0.60743844  0.85437361  0.16346590     0.08900
H3862       H  0.58649160  0.86837388  0.12989494     0.08900
H3863       H  0.59496941  0.89397022  0.16140729     0.05700
C3864       C  0.86924280  0.66042623  0.41915230    -0.20100
C3865       C  0.87505772  0.65693818  0.38686820    -0.06700
C3866       C  0.88256799  0.62704116  0.37682816     0.14200
C3867       C  0.88923238  0.60382502  0.39990409    -0.20200
C3868       C  0.88795351  0.61009071  0.43240279    -0.06700
C3869       C  0.87339205  0.63710502  0.44170360     0.14100
C3870       C  0.86898657  0.64470122  0.47595557    -0.23500
H3871       H  0.86534749  0.68275597  0.42785327     0.15400
H3872       H  0.89882211  0.58222316  0.39260367     0.15500
C3873       C  0.88433722  0.61986294  0.34240073    -0.23500
H3874       H  0.85672245  0.66677234  0.47887786     0.05700
H3875       H  0.89170475  0.64717320  0.48719020     0.08900
H3876       H  0.85493669  0.62622428  0.48834043     0.08900
H3877       H  0.90287712  0.63376150  0.33007408     0.08900
H3878       H  0.86196745  0.62504683  0.33140406     0.08900
H3879       H  0.88902191  0.59503234  0.33892438     0.05700
C3880       C  0.54961222  0.68459064  0.46396219    -0.20100
C3881       C  0.54642629  0.65737233  0.44685503    -0.06700
C3882       C  0.55837821  0.65636765  0.41586345     0.14200
C3883       C  0.57338815  0.68255772  0.40272337    -0.20200
C3884       C  0.57615483  0.70984016  0.41960694    -0.06700
C3885       C  0.56414410  0.71110009  0.45047017     0.14100
C3886       C  0.56535745  0.74067478  0.46832826    -0.23500
H3887       H  0.53957054  0.68535192  0.48744472     0.15400
H3888       H  0.58286981  0.68179320  0.37894310     0.15500
C3889       C  0.55457916  0.62858312  0.39573463    -0.23500
H3890       H  0.55361196  0.73788700  0.49163180     0.05700
H3891       H  0.55370701  0.75923185  0.45479690     0.08900
H3892       H  0.58963652  0.74790281  0.47222861     0.08900
H3893       H  0.53947666  0.63432949  0.37573238     0.08900
H3894       H  0.54426025  0.60855045  0.40910409     0.08900
H3895       H  0.57737415  0.62176305  0.38619699     0.05700
C3896       C  0.90688127  0.63290464  0.05541341    -0.20100
C3897       C  0.90284199  0.60389392  0.07043615    -0.06700
C3898       C  0.88740036  0.60163466  0.10010093     0.14200
C3899       C  0.87782704  0.62894772  0.11456335    -0.20200
C3900       C  0.88420160  0.65812032  0.10011914    -0.06700
C3901       C  0.89857467  0.65991837  0.06987704     0.14100
C3902       C  0.90765285  0.69025944  0.05335516    -0.23500
H3903       H  0.91996327  0.63466090  0.03346284     0.15400
H3904       H  0.86701682  0.62757770  0.13779438     0.15500
C3905       C  0.88275306  0.57115286  0.11761562    -0.23500
H3906       H  0.92038948  0.68688311  0.03081893     0.05700
H3907       H  0.92294969  0.70417630  0.06831326     0.08900
H3908       H  0.88688970  0.70330552  0.04755281     0.08900
H3909       H  0.89232889  0.55165815  0.10440835     0.08900
H3910       H  0.85774696  0.56641662  0.12153988     0.08900
H3911       H  0.89418704  0.57201268  0.14072095     0.05700
C3912       C  0.52570920  0.66856736  0.04544117    -0.20100
C3913       C  0.54476193  0.64506972  0.05726364    -0.06700
C3914       C  0.57419094  0.65323935  0.06811513     0.14200
C3915       C  0.58496197  0.68372717  0.06431745    -0.20200
C3916       C  0.56667309  0.70689590  0.05105993    -0.06700
C3917       C  0.53599458  0.69954395  0.04299821     0.14100
C3918       C  0.51365999  0.72352913  0.03190439    -0.23500
H3919       H  0.50296093  0.66249123  0.03707790     0.15400
H3920       H  0.60774303  0.68968775  0.07270806     0.15500
C3921       C  0.59468728  0.63046610  0.08399442    -0.23500
H3922       H  0.50467436  0.71731449  0.00862033     0.05700
H3923       H  0.52430590  0.74704646  0.02964955     0.08900
H3924       H  0.49390304  0.72423152  0.04889208     0.08900
H3925       H  0.61749864  0.63016443  0.07163188     0.08900
H3926       H  0.58453854  0.60676661  0.08434544     0.08900
H3927       H  0.59819779  0.63759204  0.10855231     0.05700
C3928       C  0.75095926  0.66486910  0.55970151     0.42600
N3929       N  0.74416034  0.69436614  0.51852679     0.01500
C3930       C  0.85167365  0.77907093  0.92710547    -0.06400
H3931       H  0.84604141  0.80395547  0.55859373     0.07000
C3932       C  0.73471661  0.83813176  0.53755634    -0.06700
Co3933     Co  0.80521229  0.71732915  0.98965162     0.74200
N3934       N  0.82601226  0.77289565  0.52470078    -0.25900
Co3935     Co  0.80650024  0.79864567  0.48737396     0.74100
C3936       C  0.75955109  0.84721949  0.55856290     0.42700
N3937       N  0.69535887  0.77360557  0.51136767     0.01100
N3938       N  0.77807057  0.82178206  0.51964319     0.01200
N3939       N  0.84636552  0.72761435  0.93347819    -0.46700
H3940       H  0.80382747  0.67058278  0.55502252     0.07000
N3941       N  0.82321703  0.74250843  0.52456044     0.01500
N3942       N  0.79136299  0.82343196  0.95061366     0.01300
C3943       C  0.78355922  0.85567462  0.91171214     0.42900
N3944       N  0.69570925  0.74307263  0.51145507    -0.25400
C3945       C  0.79418577  0.66991233  0.93553228    -0.06300
N3946       N  0.72943190  0.67755103  0.54082171    -0.46500
N3947       N  0.80509920  0.84455184  0.93153633    -0.46700
C3948       C  0.76706816  0.65872992  0.91855834     0.42600
N3949       N  0.83335497  0.74145676  0.95712800     0.01500
N3950       N  0.70858415  0.74541737  0.94278493    -0.25400
N3951       N  0.77434666  0.69379447  0.52165148    -0.25900
N3952       N  0.70878314  0.77586330  0.94192768     0.01100
H3953       H  0.68487629  0.71143770  0.91579708     0.07000
H3954       H  0.73182437  0.84317698  0.91300457     0.07100
N3955       N  0.83580976  0.77188219  0.95451140    -0.25900
N3956       N  0.74795110  0.82192124  0.51503677    -0.25500
N3957       N  0.75412347  0.69527123  0.94982110     0.01500
C3958       C  0.84609079  0.75097840  0.56833878     0.42900
C3959       C  0.67208766  0.73167926  0.52935454    -0.06800
N3960       N  0.76151723  0.82109159  0.94578058    -0.25500
H3961       H  0.71018376  0.84190131  0.53972736     0.07100
N3962       N  0.83462104  0.72906106  0.54965003    -0.46700
H3963       H  0.66542677  0.70745834  0.53168763     0.07000
C3964       C  0.67873017  0.76310120  0.90354392     0.42700
C3965       C  0.78096795  0.67564111  0.54687040    -0.06300
Co3966     Co  0.72690531  0.72026483  0.98074409     0.73800
N3967       N  0.67143007  0.78386472  0.52813169    -0.46500
C3968       C  0.85866321  0.74896514  0.91303008     0.43000
N3969       N  0.74334133  0.67559181  0.92932122    -0.46500
Co3970     Co  0.72568396  0.79840046  0.47888605     0.73900
C3971       C  0.75499518  0.83840233  0.92048555    -0.06800
C3972       C  0.84076189  0.78067051  0.55143698    -0.06300
N3973       N  0.78395193  0.69262265  0.95396879    -0.25900
N3974       N  0.78594699  0.83606698  0.54587521    -0.46600
H3975       H  0.85561803  0.80214308  0.91715665     0.07000
C3976       C  0.69137367  0.73539974  0.91913829    -0.06800
Cl3977     Cl  0.76460338  0.75856778  0.48436512    -0.49800
C3978       C  0.65584923  0.75857343  0.54077814     0.42800
H3979       H  0.81709138  0.66053289  0.93595501     0.07000
N3980       N  0.69055449  0.78720399  0.91973169    -0.46500
C3981       C  0.62337412  0.75774458  0.55399572     0.03300
C3982       C  0.60259887  0.73426047  0.54446200    -0.12900
C3983       C  0.57250377  0.73141196  0.55754329     0.00800
C3984       C  0.56222840  0.75388767  0.57759846    -0.11400
C3985       C  0.58372473  0.77258445  0.59253488     0.03300
C3986       C  0.61412504  0.77596727  0.57965534    -0.10800
H3987       H  0.61031570  0.71681121  0.52848684     0.08900
H3988       H  0.53931701  0.75080166  0.58824366     0.06400
H3989       H  0.63104214  0.79023378  0.59121524     0.06300
C3990       C  0.86131433  0.74129746  0.59829371     0.03300
C3991       C  0.85353506  0.71069243  0.60813528    -0.12900
C3992       C  0.87614865  0.69168056  0.61978170     0.00800
C3993       C  0.90170733  0.70527007  0.63353754    -0.11400
C3994       C  0.90801760  0.73740407  0.63014627     0.03300
C3995       C  0.88830621  0.75546896  0.61072032    -0.10800
H3996       H  0.83329131  0.69924762  0.59889142     0.08900
H3997       H  0.91857819  0.68992428  0.64352739     0.06400
H3998       H  0.89517226  0.77882509  0.60337633     0.06300
C3999       C  0.60546797  0.76524907  0.85255554     0.03300
C4000       C  0.58462360  0.75257463  0.87494636    -0.12900
C4001       C  0.59478775  0.74121158  0.90358617     0.00800
C4002       C  0.62447868  0.74806584  0.91324654    -0.11400
C4003       C  0.64617606  0.76252714  0.89247073     0.03300
C4004       C  0.63683587  0.77043796  0.86121636    -0.10800
H4005       H  0.56132918  0.74647383  0.86805702     0.08900
H4006       H  0.63163497  0.73877505  0.93585276     0.06400
H4007       H  0.65373312  0.77896918  0.84379874     0.06300
C4008       C  0.91418792  0.72727880  0.84710189     0.03300
C4009       C  0.90429145  0.69571588  0.84893125    -0.12900
C4010       C  0.87688523  0.68647045  0.86486338     0.00800
C4011       C  0.85681393  0.70962773  0.87337079    -0.11400
C4012       C  0.86947367  0.73861424  0.88128211     0.03300
C4013       C  0.89763658  0.74852723  0.86591437    -0.10800
H4014       H  0.91916385  0.67773343  0.84093279     0.08900
H4015       H  0.83495066  0.70196965  0.88414697     0.06400
H4016       H  0.90762790  0.77107809  0.87043247     0.06300
N4017       N  0.97704751  0.60117594  0.95166393    -0.36400
N4018       N  0.51619039  0.60751436  0.51086917    -0.57000
N4019       N  0.97345970  0.58444794  0.55749488    -0.36400
N4020       N  0.92660957  0.58550390  0.50636367    -0.57000
C4021       C  0.50245073  0.62384238  0.93496812     0.27100
C4022       C  0.95055039  0.60678654  0.93666432     0.27100
C4023       C  0.49239703  0.59729736  0.57689802     0.27100
C4024       C  0.94699340  0.58610123  0.57463669     0.27100
C4025       C  0.54489382  0.61453005  0.97196144     0.35800
C4026       C  0.53321808  0.60200280  0.53635403     0.35800
C4027       C  0.91403359  0.58022056  0.97555648     0.35800
C4028       C  0.91079954  0.57327740  0.53161360     0.35800
C4029       C  0.49078402  0.63771087  0.90821303    -0.21700
C4030       C  0.95664933  0.62800279  0.91192841    -0.21700
C4031       C  0.48020373  0.60309590  0.60632323    -0.21700
C4032       C  0.95347823  0.59892938  0.60358584    -0.21700
C4033       C  0.57535722  0.61724645  0.98049061    -0.22800
C4034       C  0.56415398  0.60702442  0.52846827    -0.22800
C4035       C  0.88507402  0.56915419  0.98524135    -0.22800
C4036       C  0.88207061  0.56284037  0.52213109    -0.22800
C4037       C  0.53292353  0.62862383  0.94500297    -0.18100
C4038       C  0.92054414  0.59564045  0.94613464    -0.18100
C4039       C  0.91673035  0.58259561  0.56260538    -0.18100
C4040       C  0.52126983  0.60907762  0.56594936    -0.18100
H4041       H  0.50297846  0.65246777  0.89089793     0.14800
H4042       H  0.94058721  0.63815488  0.89585148     0.14800
H4043       H  0.49169913  0.61437898  0.62538605     0.14800
H4044       H  0.93748193  0.60406871  0.62244279     0.14800
H4045       H  0.59433237  0.62798937  0.96711057     0.13100
H4046       H  0.58327474  0.60780022  0.54420942     0.13100
H4047       H  0.86465952  0.56759184  0.97109952     0.13100
H4048       H  0.86300853  0.55489331  0.53733207     0.13100
H4049       H  0.97947384  0.58626415  0.97096284     0.26300
H4050       H  0.97530099  0.57683402  0.53456748     0.26300
C4051       C  0.58878084  0.66419046  0.72364455     0.42600
N4052       N  0.55699700  0.69957954  0.73874038     0.01500
C4053       C  0.94822898  0.77858219  0.65517518    -0.06400
H4054       H  0.55367314  0.82308523  0.63078322     0.07000
C4055       C  0.56697162  0.84105437  0.75399756    -0.06700
Co4056     Co  0.01831282  0.72119127  0.68885621     0.74200
N4057       N  0.53937260  0.78584930  0.66251077    -0.25900
Co4058     Co  0.00610847  0.80122911  0.69464799     0.74100
C4059       C  0.57722665  0.85962682  0.72617517     0.42700
N4060       N  0.55177236  0.77485427  0.79323811     0.01100
N4061       N  0.53809567  0.82998072  0.71519827     0.01200
N4062       N  0.95977854  0.72828340  0.65190777    -0.46700
H4063       H  0.57309731  0.67067298  0.67234711     0.07000
N4064       N  0.54620432  0.75626074  0.66365565     0.01500
N4065       N  0.97053721  0.81792693  0.72462717     0.01300
C4066       C  0.93281034  0.84252238  0.74649129     0.42900
N4067       N  0.55586652  0.74501119  0.79039376    -0.25400
C4068       C  0.96691450  0.66943621  0.70246945    -0.06300
N4069       N  0.57690646  0.67889963  0.74866358    -0.46500
N4070       N  0.94609307  0.83543663  0.71821621    -0.46700
C4071       C  0.95428286  0.65337331  0.73087525     0.42600
N4072       N  0.98098456  0.74328249  0.66765425     0.01500
N4073       N  0.98511001  0.72962767  0.79766199    -0.25400
N4074       N  0.55420974  0.70008526  0.70794561    -0.25900
N4075       N  0.97983283  0.75927598  0.80089389     0.01100
H4076       H  0.96314336  0.68794822  0.81579821     0.07000
H4077       H  0.95102350  0.82898910  0.79583287     0.07100
N4078       N  0.97496451  0.77297362  0.67018559    -0.25900
N4079       N  0.54233361  0.82463396  0.74546257    -0.25500
N4080       N  0.98896212  0.68731433  0.74378279     0.01500
C4081       C  0.57644948  0.77579940  0.62639512     0.42900
C4082       C  0.58159799  0.73757606  0.80578145    -0.06800
N4083       N  0.97383597  0.81334700  0.75518484    -0.25500
H4084       H  0.57502304  0.84238749  0.77779922     0.07100
N4085       N  0.56801263  0.74958136  0.64294978    -0.46700
H4086       H  0.58970763  0.71426989  0.80929442     0.07000
C4087       C  0.94373086  0.73533783  0.82896394     0.42700
C4088       C  0.57312053  0.67835149  0.69631739    -0.06300
Co4089     Co  0.02098164  0.71344600  0.76959146     0.73800
N4090       N  0.57288188  0.78797526  0.81115632    -0.46500
C4091       C  0.93810795  0.74847744  0.64297976     0.43000
N4092       N  0.96966285  0.66549183  0.75526848    -0.46500
Co4093     Co  0.01050521  0.79131321  0.77653156     0.73900
C4094       C  0.95182140  0.82784130  0.77051544    -0.06800
C4095       C  0.55658713  0.79970770  0.63927329    -0.09300
N4096       N  0.98795790  0.69003795  0.71283727    -0.25900
N4097       N  0.55758560  0.85159471  0.70313478    -0.46600
H4098       H  0.93706407  0.80067267  0.65349214     0.07000
C4099       C  0.96399606  0.71292928  0.81441553    -0.06800
Cl4100     Cl  0.01385904  0.75675755  0.73239625    -0.49800
C4101       C  0.59346249  0.76625588  0.81992873     0.42800
H4102       H  0.96205909  0.66529072  0.67808305     0.07000
N4103       N  0.95502383  0.76386054  0.81934107    -0.46500
C4104       C  0.75372479  0.85683495  0.59178708     0.03300
C4105       C  0.72469012  0.84729680  0.60448226    -0.12900
C4106       C  0.71022264  0.86482809  0.62687509     0.00800
C4107       C  0.72841363  0.88265229  0.64600808    -0.11400
C4108       C  0.75714467  0.89445236  0.63455751     0.03300
C4109       C  0.77021491  0.88117925  0.60691506    -0.10800
H4110       H  0.71026150  0.83093653  0.59237854     0.08900
H4111       H  0.71661771  0.89389613  0.66516884     0.06400
H4112       H  0.79048726  0.89182767  0.59552486     0.06300
C4113       C  0.74297853  0.64616023  0.58890542     0.03300
C4114       C  0.71144273  0.64404317  0.59737596    -0.12900
C4115       C  0.70146238  0.62516947  0.62265966     0.00800
C4116       C  0.72307099  0.61609169  0.64444878    -0.11400
C4117       C  0.75289625  0.60971909  0.63315508     0.03300
C4118       C  0.76384863  0.62673976  0.60569798    -0.10800
H4119       H  0.69418119  0.65309437  0.58173407     0.08900
H4120       H  0.71425386  0.60382487  0.66544780     0.06400
H4121       H  0.78672149  0.62286207  0.59610063     0.06300
C4122       C  0.76069230  0.62634419  0.90966680     0.03300
C4123       C  0.74042275  0.60921906  0.92991111    -0.12900
C4124       C  0.72478001  0.58301186  0.91981959     0.00800
C4125       C  0.73117614  0.57225512  0.88954627    -0.11400
C4126       C  0.75307280  0.58767023  0.86914631     0.03300
C4127       C  0.76780783  0.61507517  0.87944144    -0.10800
H4128       H  0.73412237  0.61829236  0.95265117     0.08900
H4129       H  0.71819781  0.55239292  0.88153595     0.06400
H4130       H  0.78265418  0.62867363  0.86330851     0.06300
C4131       C  0.76050507  0.92696077  0.86830371     0.03300
C4132       C  0.73782040  0.93487379  0.89072107    -0.12900
C4133       C  0.73806637  0.92191651  0.92131174     0.00800
C4134       C  0.76207135  0.90291038  0.92993869    -0.11400
C4135       C  0.77982927  0.88923734  0.90643735     0.03300
C4136       C  0.78066794  0.90272996  0.87583903    -0.10800
H4137       H  0.71947860  0.95031040  0.88431979     0.08900
H4138       H  0.76109111  0.89212422  0.95333644     0.06400
H4139       H  0.79465912  0.89274472  0.85748919     0.06300
N4140       N  0.61325646  0.55417053  0.54328268    -0.36400
N4141       N  0.58913731  0.98013824  0.59104915    -0.57000
N4142       N  0.60140222  0.93970023  0.53693506    -0.36400
N4143       N  0.61115435  0.98396162  0.98951842    -0.57000
C4144       C  0.59459927  0.54329984  0.56747763     0.27100
C4145       C  0.59889948  0.53857373  0.01280023     0.27100
C4146       C  0.59236093  0.91962477  0.56058901     0.27100
C4147       C  0.61085274  0.91980816  0.01524303     0.27100
C4148       C  0.59873225  0.50809935  0.61272163     0.35800
C4149       C  0.59428329  0.95362444  0.60714920     0.35800
C4150       C  0.61485536  0.50440867  0.97208032     0.35800
C4151       C  0.62176450  0.96001879  0.97336124     0.35800
C4152       C  0.56771060  0.53087837  0.55577622    -0.21700
C4153       C  0.57030075  0.52471954  0.02031704    -0.21700
C4154       C  0.59020046  0.88999713  0.54888210    -0.21700
C4155       C  0.60645545  0.88896228  0.02380459    -0.21700
C4156       C  0.60975658  0.49792939  0.64145733    -0.22800
C4157       C  0.60445842  0.96016954  0.63708241    -0.22800
C4158       C  0.62878689  0.49597577  0.94411485    -0.22800
C4159       C  0.63647254  0.97056968  0.94559382    -0.22800
C4160       C  0.60436903  0.53775728  0.59870641    -0.18100
C4161       C  0.61588322  0.53402435  0.98455759    -0.18100
C4162       C  0.62494109  0.93004677  0.98649603    -0.18100
C4163       C  0.59799539  0.92485420  0.59272825    -0.18100
H4164       H  0.54887269  0.51958703  0.56904291     0.14800
H4165       H  0.55531556  0.51179901  0.00536127     0.14800
H4166       H  0.58625451  0.86867675  0.56246420     0.14800
H4167       H  0.61057956  0.86923900  0.00929205     0.14800
H4168       H  0.62102901  0.51153796  0.65897894     0.13100
H4169       H  0.61249622  0.94386832  0.65471270     0.13100
H4170       H  0.63943091  0.51085114  0.92593370     0.13100
H4171       H  0.64845203  0.95730752  0.92820218     0.13100
H4172       H  0.63569912  0.56304131  0.54409190     0.26300
H4173       H  0.60866798  0.96255898  0.53969254     0.26300
C4174       C  0.58835945  0.89176091  0.73090776     0.03300
C4175       C  0.57054147  0.90745519  0.75283683    -0.12900
C4176       C  0.58483450  0.92688581  0.77362015     0.00800
C4177       C  0.61464533  0.93814134  0.76697765    -0.11400
C4178       C  0.63215334  0.92661259  0.74187409     0.03300
C4179       C  0.61927616  0.90207930  0.72441465    -0.10800
H4180       H  0.54731055  0.89898551  0.75875763     0.08900
H4181       H  0.62485779  0.95419654  0.78310504     0.06400
H4182       H  0.63362023  0.88988307  0.70792683     0.06300
C4183       C  0.89344222  0.58718070  0.73238965     0.03300
C4184       C  0.90904127  0.56635609  0.75164438    -0.12900
C4185       C  0.93699017  0.57449447  0.76487056     0.00800
C4186       C  0.95334298  0.60040811  0.75286133    -0.11400
C4187       C  0.93882803  0.62231618  0.73357670     0.03300
C4188       C  0.90829525  0.61583602  0.72334348    -0.10800
H4189       H  0.89696486  0.54549139  0.76030426     0.08900
H4190       H  0.97606579  0.60545375  0.76178253     0.06400
H4191       H  0.89583248  0.63329919  0.71037662     0.06300
C4192       C  0.59770326  0.63102529  0.72832613     0.03300
C4193       C  0.62746619  0.61971291  0.72092788    -0.12900
C4194       C  0.63665882  0.59089672  0.73411955     0.00800
C4195       C  0.61755338  0.57659963  0.75766060    -0.11400
C4196       C  0.58818623  0.58764830  0.76628726     0.03300
C4197       C  0.57757529  0.61262311  0.74784614    -0.10800
H4198       H  0.64364173  0.63375251  0.70669719     0.08900
H4199       H  0.62722060  0.55738683  0.77030092     0.06400
H4200       H  0.55418089  0.61986020  0.74974005     0.06300
C4201       C  0.86125284  0.89723468  0.74658934     0.03300
C4202       C  0.84968812  0.88668135  0.77619514    -0.12900
C4203       C  0.87054863  0.87539511  0.79752711     0.00800
C4204       C  0.89379351  0.85736622  0.78602951    -0.11400
C4205       C  0.90358940  0.85977751  0.75409669     0.03300
C4206       C  0.88824918  0.88217904  0.73439399    -0.10800
H4207       H  0.82906225  0.89671527  0.78607146     0.08900
H4208       H  0.90647425  0.84505042  0.80367390     0.06400
H4209       H  0.89848887  0.88958892  0.71193381     0.06300
N4210       N  0.91849971  0.00843631  0.88844209    -0.36400
N4211       N  0.99523238  0.54010263  0.88685055    -0.57000
N4212       N  0.56351737  0.98460347  0.89012117    -0.36400
N4213       N  0.95482481  0.93645743  0.89461661    -0.57000
C4214       C  0.92667530  0.49488371  0.90331716     0.27100
C4215       C  0.89637151  0.98683224  0.89560319     0.27100
C4216       C  0.55368495  0.51650967  0.90695044     0.27100
C4217       C  0.55633996  0.96091409  0.91085163     0.27100
C4218       C  0.96996844  0.53120803  0.90410880     0.35800
C4219       C  0.51258399  0.54947197  0.90222128     0.35800
C4220       C  0.93063946  0.94647973  0.91200793     0.35800
C4221       C  0.51715138  0.91827806  0.91767642     0.35800
C4222       C  0.89625193  0.48650823  0.89840807    -0.21700
C4223       C  0.86772009  0.99993650  0.89299713    -0.21700
C4224       C  0.55508100  0.50998008  0.93868860    -0.21700
C4225       C  0.55743459  0.97187919  0.94106077    -0.21700
C4226       C  0.97618517  0.53020560  0.93573460    -0.22800
C4227       C  0.50061428  0.54627955  0.93291784    -0.22800
C4228       C  0.94001658  0.95528393  0.94114657    -0.22800
C4229       C  0.50974552  0.91897543  0.94965616    -0.22800
C4230       C  0.94252062  0.52122618  0.89040254    -0.18100
C4231       C  0.90245057  0.95493816  0.89899970    -0.18100
C4232       C  0.54256064  0.93279114  0.90117419    -0.18100
C4233       C  0.54377195  0.54433730  0.89320503    -0.18100
H4234       H  0.87895081  0.50060264  0.88739834     0.14800
H4235       H  0.84551446  0.98844291  0.89705261     0.14800
H4236       H  0.55756029  0.52689227  0.95650616     0.14800
H4237       H  0.55455609  0.95986148  0.96334409     0.14800
H4238       H  0.96056992  0.52342614  0.95502270     0.13100
H4239       H  0.51267017  0.54937129  0.95459712     0.13100
H4240       H  0.92614149  0.96569612  0.95929205     0.13100
H4241       H  0.52458616  0.92275486  0.96915353     0.13100
H4242       H  0.94213114  0.00426946  0.88677294     0.26300
H4243       H  0.56251898  0.98464601  0.86569759     0.26300
C4244       C  0.66445985  0.93879754  0.73761395     0.42600
N4245       N  0.70037798  0.97263042  0.74749800     0.01500
C4246       C  0.79088055  0.56456389  0.65532805    -0.06400
H4247       H  0.81660293  0.93542259  0.65180085     0.07000
C4248       C  0.84260345  0.95072209  0.76486084    -0.06700
Co4249     Co  0.72534764  0.50232183  0.69333153     0.74200
N4250       N  0.78375660  0.96873515  0.66895889    -0.25900
Co4251     Co  0.80643251  0.50356074  0.69706232     0.74100
C4252       C  0.85228282  0.93038174  0.73958923     0.42700
N4253       N  0.77683650  0.97504716  0.80043957     0.01100
N4254       N  0.82954110  0.97071524  0.72036662     0.01200
N4255       N  0.74012282  0.55643413  0.65031953    -0.46700
H4256       H  0.67308413  0.94553130  0.68418050     0.07000
N4257       N  0.75333795  0.96877197  0.66897167     0.01500
N4258       N  0.82937092  0.54038686  0.71937896     0.01300
C4259       C  0.86002547  0.57954109  0.72903648     0.42900
N4260       N  0.74644861  0.97547883  0.79904298    -0.25400
C4261       C  0.67941581  0.55938126  0.70221102    -0.06300
N4262       N  0.67869057  0.95428173  0.76068793    -0.46500
N4263       N  0.85045351  0.55998902  0.70655798    -0.46700
C4264       C  0.66790688  0.57701353  0.72939823     0.42600
N4265       N  0.75228575  0.53354954  0.66638011     0.01500
N4266       N  0.74374298  0.54515196  0.79754616    -0.25400
N4267       N  0.70129658  0.97072990  0.71661930    -0.25900
N4268       N  0.77397103  0.54649176  0.80019172     0.01100
H4269       H  0.70651235  0.56454796  0.82403066     0.07000
H4270       H  0.84509573  0.57684173  0.78140121     0.07100
N4271       N  0.78244653  0.53674217  0.66912728    -0.25900
N4272       N  0.82794017  0.97381271  0.75120033    -0.25500
N4273       N  0.70018368  0.54196306  0.74452025     0.01500
C4274       C  0.76433816  0.92649724  0.64547254     0.42900
C4275       C  0.73441643  0.95552419  0.82090167    -0.06800
N4276       N  0.82505406  0.54469051  0.74973214    -0.25500
H4277       H  0.84446952  0.94755405  0.79005488     0.07100
N4278       N  0.74123582  0.94460011  0.65526441    -0.46700
H4279       H  0.71009358  0.95244377  0.82661869     0.07000
C4280       C  0.75651584  0.57693121  0.83605537     0.42700
C4281       C  0.67964269  0.94984973  0.70810074    -0.06300
Co4282     Co  0.72120018  0.50985226  0.77408498     0.73800
N4283       N  0.78643212  0.95580725  0.82291540    -0.46500
C4284       C  0.76243290  0.57749943  0.64216727     0.43000
N4285       N  0.68204121  0.56404200  0.75440162    -0.46500
Co4286     Co  0.80386089  0.00807405  0.77446089     0.73900
C4287       C  0.84200746  0.56946422  0.75753865    -0.06800
C4288       C  0.79301180  0.94266695  0.65456505    -0.06300
N4289       N  0.69963100  0.53865943  0.71380780    -0.25900
N4290       N  0.84321742  0.94442901  0.71232182    -0.46600
H4291       H  0.81318816  0.57572179  0.65700232     0.07000
C4292       C  0.73095532  0.56384703  0.81850127    -0.06800
Cl4293     Cl  0.76347910  0.50679072  0.73571346    -0.49800
C4294       C  0.76094938  0.94220079  0.83662504     0.42800
H4295       H  0.67233371  0.56071825  0.67807079     0.07000
N4296       N  0.78249321  0.56450532  0.82362387    -0.46500
C4297       C  0.86727636  0.88789857  0.85468944    -0.20100
C4298       C  0.87835374  0.89543827  0.82411660    -0.06700
C4299       C  0.89740013  0.92242873  0.81903619     0.14200
C4300       C  0.90092447  0.94299769  0.84328200    -0.20200
C4301       C  0.89083361  0.93521038  0.87385437    -0.06700
C4302       C  0.87475471  0.90687922  0.87999314     0.14100
C4303       C  0.86619738  0.89657771  0.91313109    -0.23500
H4304       H  0.85379727  0.86673427  0.85889479     0.15400
H4305       H  0.91438159  0.96418655  0.83905022     0.15500
C4306       C  0.91669084  0.92892372  0.78947780    -0.23500
H4307       H  0.85506347  0.87328490  0.91380473     0.05700
H4308       H  0.85011290  0.91323444  0.92366330     0.08900
H4309       H  0.88726171  0.89524553  0.92747114     0.08900
H4310       H  0.90259085  0.93274578  0.76884006     0.08900
H4311       H  0.93272433  0.90970240  0.78556482     0.08900
H4312       H  0.93082173  0.95045814  0.79088408     0.05700
C4313       C  0.54044612  0.57948007  0.84513843    -0.20100
C4314       C  0.55455431  0.55401023  0.85987211    -0.06700
C4315       C  0.57803160  0.53935630  0.84205285     0.14200
C4316       C  0.58183897  0.54686812  0.80988732    -0.20200
C4317       C  0.57159301  0.57500478  0.79642653    -0.06700
C4318       C  0.55000029  0.59161100  0.81523186     0.14100
C4319       C  0.53688628  0.62250634  0.80585780    -0.23500
H4320       H  0.52304827  0.59168913  0.85823080     0.15400
H4321       H  0.59563822  0.53136209  0.79635403     0.15500
C4322       C  0.60209476  0.51806357  0.85537761    -0.23500
H4323       H  0.52285256  0.63250101  0.82506302     0.05700
H4324       H  0.52080402  0.61976516  0.78627825     0.08900
H4325       H  0.55575282  0.63959235  0.80007917     0.08900
H4326       H  0.59747558  0.49388377  0.84838423     0.08900
H4327       H  0.60446111  0.51925894  0.88105755     0.08900
H4328       H  0.62524821  0.52529544  0.84573414     0.05700
C4329       C  0.93935383  0.52890114  0.80087200    -0.20100
C4330       C  0.94309301  0.56099183  0.79647478    -0.06700
C4331       C  0.94413231  0.57976911  0.82322101     0.14200
C4332       C  0.94116931  0.56583853  0.85318880    -0.20200
C4333       C  0.93704620  0.53373294  0.85782940    -0.06700
C4334       C  0.93528967  0.51507862  0.83091569     0.14100
C4335       C  0.92863690  0.48086423  0.83267862    -0.23500
H4336       H  0.93773607  0.51471571  0.78030897     0.15400
H4337       H  0.94337472  0.58008577  0.87352223     0.15500
C4338       C  0.94786666  0.61455172  0.82086447    -0.23500
H4339       H  0.90418761  0.47625773  0.83961196     0.05700
H4340       H  0.94409306  0.46944983  0.84939666     0.08900
H4341       H  0.93209081  0.47033404  0.80945949     0.08900
H4342       H  0.93024182  0.62462506  0.80536864     0.08900
H4343       H  0.97126319  0.62108797  0.81171283     0.08900
H4344       H  0.94523666  0.62527024  0.84405208     0.05700
C4345       C  0.54480958  0.94194764  0.81218236    -0.20100
C4346       C  0.57234044  0.92682727  0.80600470    -0.06700
C4347       C  0.58600801  0.90880214  0.83006072     0.14200
C4348       C  0.57282489  0.90818970  0.86032175    -0.20200
C4349       C  0.54725249  0.92597822  0.86743529    -0.06700
C4350       C  0.53227755  0.94233723  0.84276311     0.14100
C4351       C  0.50590867  0.96380264  0.84827111    -0.23500
H4352       H  0.53394520  0.95486236  0.79334943     0.15400
H4353       H  0.58372566  0.89538394  0.87909691     0.15500
C4354       C  0.61471700  0.89046668  0.82417318    -0.23500
H4355       H  0.51313321  0.98779316  0.84106804     0.05700
H4356       H  0.49812676  0.96396062  0.87313694     0.08900
H4357       H  0.48623300  0.95719871  0.83359799     0.08900
H4358       H  0.63448184  0.90631904  0.81790923     0.08900
H4359       H  0.61097027  0.87430233  0.80476887     0.08900
H4360       H  0.62114717  0.87659473  0.84533497     0.05700
C4361       C  0.68085703  0.92978426  0.98914081    -0.20100
C4362       C  0.65430942  0.91560099  0.97688074    -0.06700
C4363       C  0.65686912  0.89977862  0.94844095     0.14200
C4364       C  0.68473106  0.90193127  0.93105015    -0.20200
C4365       C  0.70970337  0.92011255  0.94118941    -0.06700
C4366       C  0.70817597  0.93326362  0.97108063     0.14100
C4367       C  0.73435428  0.95295016  0.98282391    -0.23500
H4368       H  0.67871994  0.94218797  0.01087249     0.15400
H4369       H  0.68654600  0.89045059  0.90875478     0.15500
C4370       C  0.62987400  0.88302563  0.93464870    -0.23500
H4371       H  0.72862543  0.96291306  0.00596827     0.05700
H4372       H  0.73946553  0.97238634  0.96575684     0.08900
H4373       H  0.75526634  0.93888676  0.98558778     0.08900
H4374       H  0.62493001  0.89383264  0.91142080     0.08900
H4375       H  0.60881794  0.88381509  0.94986314     0.08900
H4376       H  0.63562569  0.85839608  0.93144771     0.05700
C4377       C  0.67217738  0.54623795  0.98445484    -0.20100
C4378       C  0.64278931  0.55375308  0.97328035    -0.06700
C4379       C  0.64114719  0.57088669  0.94454155     0.14200
C4380       C  0.66822380  0.58022868  0.92803701    -0.20200
C4381       C  0.69725975  0.57161722  0.93846177    -0.06700
C4382       C  0.69936054  0.55459203  0.96713830     0.14100
C4383       C  0.73006860  0.54371559  0.97840122    -0.23500
H4384       H  0.67368086  0.53146127  0.00536986     0.15400
H4385       H  0.66659426  0.59358727  0.90616808     0.15500
C4386       C  0.61121140  0.57771919  0.92916333    -0.23500
H4387       H  0.72767855  0.53012611  0.00090214     0.05700
H4388       H  0.74565107  0.56387786  0.98224798     0.08900
H4389       H  0.74067799  0.52878945  0.96048520     0.08900
H4390       H  0.59080293  0.56957112  0.94332474     0.08900
H4391       H  0.61046400  0.56689486  0.90588313     0.08900
H4392       H  0.61010417  0.60297792  0.92556540     0.05700
C4393       C  0.65884533  0.55414035  0.59541855    -0.20100
C4394       C  0.63025057  0.55672096  0.61051815    -0.06700
C4395       C  0.62636068  0.57916953  0.63358213     0.14200
C4396       C  0.64937954  0.60233898  0.63643881    -0.20200
C4397       C  0.67623632  0.60248270  0.61740073    -0.06700
C4398       C  0.68105219  0.57771522  0.59663928     0.14100
C4399       C  0.70868209  0.57608836  0.57449925    -0.23500
H4400       H  0.66245879  0.53498523  0.57990156     0.15400
H4401       H  0.64671761  0.61995789  0.65376552     0.15500
C4402       C  0.59963714  0.57709381  0.65683967    -0.23500
H4403       H  0.70751202  0.55539862  0.55962449     0.05700
H4404       H  0.73023733  0.57453073  0.58768057     0.08900
H4405       H  0.70967625  0.59657596  0.55820515     0.08900
H4406       H  0.60440559  0.55949597  0.67546672     0.08900
H4407       H  0.57788183  0.57027144  0.64544565     0.08900
H4408       H  0.59616851  0.59947145  0.66833757     0.05700
C4409       C  0.65330854  0.91847618  0.58941013    -0.20100
C4410       C  0.62548249  0.90808881  0.60329900    -0.06700
C4411       C  0.62493666  0.88296295  0.62497836     0.14200
C4412       C  0.65275292  0.86826041  0.63210341    -0.20200
C4413       C  0.68071969  0.87867034  0.61774067    -0.06700
C4414       C  0.68072214  0.90404484  0.59564313     0.14100
C4415       C  0.70903672  0.91673195  0.57799751    -0.23500
H4416       H  0.65334689  0.93819838  0.57304799     0.15400
H4417       H  0.65277995  0.84910551  0.64909218     0.15500
C4418       C  0.59521744  0.87238199  0.64056409    -0.23500
H4419       H  0.70362943  0.93623798  0.56165316     0.05700
H4420       H  0.71923505  0.89874247  0.56333619     0.08900
H4421       H  0.72587977  0.92623080  0.59438004     0.08900
H4422       H  0.59834118  0.85115336  0.65532158     0.08900
H4423       H  0.57812617  0.86764066  0.62222068     0.08900
H4424       H  0.58631337  0.89089181  0.65561309     0.05700
C4425       C  0.88232197  0.66505826  0.91852580    -0.20100
C4426       C  0.87760602  0.65883312  0.88677666    -0.06700
C4427       C  0.87763084  0.62771086  0.87749750     0.14200
C4428       C  0.88690315  0.60447773  0.89931173    -0.20200
C4429       C  0.89495711  0.61203312  0.93021616    -0.06700
C4430       C  0.88902633  0.64203221  0.94058420     0.14100
C4431       C  0.89452301  0.65114049  0.97401114    -0.23500
H4432       H  0.88409767  0.68864105  0.92574292     0.15400
H4433       H  0.89020778  0.58110607  0.89164927     0.15500
C4434       C  0.86858069  0.61932686  0.84485287    -0.23500
H4435       H  0.88837609  0.67555064  0.97801405     0.05700
H4436       H  0.91924252  0.64865470  0.97958558     0.08900
H4437       H  0.87999033  0.63628508  0.99034072     0.08900
H4438       H  0.88276688  0.63272252  0.82710327     0.08900
H4439       H  0.84399223  0.62494420  0.84142796     0.08900
H4440       H  0.87145559  0.59426535  0.84083789     0.05700
C4441       C  0.54554862  0.68380086  0.95165595    -0.20100
C4442       C  0.54934562  0.65723948  0.93366313    -0.06700
C4443       C  0.56854411  0.65866004  0.90658361     0.14200
C4444       C  0.58359761  0.68644998  0.89821066    -0.20200
C4445       C  0.57952800  0.71294395  0.91593067    -0.06700
C4446       C  0.56040149  0.71186377  0.94294096     0.14100
C4447       C  0.55507126  0.73981613  0.96243801    -0.23500
H4448       H  0.53071243  0.68253297  0.97249771     0.15400
H4449       H  0.59832057  0.68769803  0.87721747     0.15500
C4450       C  0.57279697  0.63201026  0.88537302    -0.23500
H4451       H  0.53009701  0.74494232  0.96313273     0.05700
H4452       H  0.56769352  0.76079297  0.95311820     0.08900
H4453       H  0.56304024  0.73506428  0.98662195     0.08900
H4454       H  0.56276890  0.63804303  0.86238631     0.08900
H4455       H  0.56162924  0.61052121  0.89520632     0.08900
H4456       H  0.59771449  0.62794497  0.88123244     0.05700
C4457       C  0.90091697  0.63574064  0.55839262    -0.20100
C4458       C  0.89597878  0.60706799  0.57387263    -0.06700
C4459       C  0.88043440  0.60565975  0.60341759     0.14200
C4460       C  0.87209532  0.63347994  0.61771054    -0.20200
C4461       C  0.88064099  0.66227169  0.60345729    -0.06700
C4462       C  0.89517058  0.66319788  0.57325068     0.14100
C4463       C  0.90756020  0.69274572  0.55732344    -0.23500
H4464       H  0.91371603  0.63676910  0.53623594     0.15400
H4465       H  0.86092143  0.63270656  0.64077120     0.15500
C4466       C  0.87471974  0.57531783  0.62086861    -0.23500
H4467       H  0.91997182  0.68843166  0.53479900     0.05700
H4468       H  0.92420024  0.70454302  0.57266396     0.08900
H4469       H  0.88858654  0.70823182  0.55152555     0.08900
H4470       H  0.88558429  0.55574180  0.60887752     0.08900
H4471       H  0.84967711  0.57028567  0.62199700     0.08900
H4472       H  0.88399262  0.57640679  0.64497727     0.05700
C4473       C  0.51250695  0.66527441  0.56013840    -0.20100
C4474       C  0.52969797  0.64150638  0.57418260    -0.06700
C4475       C  0.55899421  0.64895125  0.58574726     0.14200
C4476       C  0.57244542  0.67803707  0.57872007    -0.20200
C4477       C  0.55682984  0.70065813  0.56132166    -0.06700
C4478       C  0.52551197  0.69492124  0.55398813     0.14100
C4479       C  0.50540248  0.71895337  0.53902036    -0.23500
H4480       H  0.48964727  0.65994867  0.55158632     0.15400
H4481       H  0.59541025  0.68316473  0.58709811     0.15500
C4482       C  0.57692236  0.62616343  0.60453937    -0.23500
H4483       H  0.49665801  0.71049626  0.51638602     0.05700
H4484       H  0.51770019  0.74133490  0.53420506     0.08900
H4485       H  0.48539494  0.72316093  0.55495026     0.08900
H4486       H  0.59962146  0.62253919  0.59284756     0.08900
H4487       H  0.56434966  0.60366561  0.60719767     0.08900
H4488       H  0.58081872  0.63544952  0.62819527     0.05700
loop_ 
_geom_bond_atom_site_label_1 
_geom_bond_atom_site_label_2 
_geom_bond_distance 
_geom_bond_site_symmetry_2 
_ccdc_geom_bond_type 
C1           N19   1.356       .  A
C1           C38   1.465       .  S
C1          C186   1.493       .  S
N2           N19   1.323       .  A
N2           N24   1.319       .  A
N2         Co600   2.108   1_554  S
C3           N28   1.368       .  A
C3           C41   1.484       .  S
C3           H48   1.079       .  S
H4           C45   1.081       .  S
C5           N29   1.336       .  A
C5            C9   1.476       .  S
C5           H34   1.082       .  S
Co6          N46   2.108       .  S
Co6          N22   2.076       .  S
Co6         N585   2.094       .  S
Co6         N575   2.073       .  S
Co6        Cl611   2.452       .  S
N7           C45   1.362       .  A
N7           N14   1.318       .  A
N7           Co8   2.121   1_554  S
Co8          N11   2.100   1_556  S
Co8         N589   2.120       .  S
Co8         N576   2.094       .  S
Co8         Cl50   2.496       .  S
C9           N47   1.357       .  A
C9          C177   1.506       .  S
N10          N17   1.320       .  A
N10          N40   1.336       .  A
N10         Co43   2.120   1_554  S
N11          N29   1.324       .  A
N11          N47   1.336       .  A
N12          C41   1.345       .  A
N12          N22   1.309       .  A
H13          C38   1.081       .  S
N14          N35   1.311       .  A
N14        Co567   2.064   1_554  S
N15          N33   1.317       .  A
N15          N20   1.326       .  A
N15        Co569   2.087       .  S
C16          N20   1.355       .  A
C16          C44   1.472       .  S
C16         C208   1.472       .  S
N17          C32   1.338       .  A
N17        Co600   2.102   1_554  S
C18          N46   1.351       .  A
C18          C21   1.476       .  S
C18          H52   1.077       .  S
C21          N42   1.352       .  A
C21         C195   1.483       .  S
N22          N28   1.318       .  A
N23          C49   1.338       .  A
N23          N25   1.314       .  A
N23         Co39   2.084       .  S
N24          C38   1.351       .  A
N24        Co567   2.087   1_554  S
N25          N53   1.335       .  A
N25        Co604   2.118       .  S
H26          C49   1.082       .  S
H27          C44   1.082       .  S
N28        Co569   2.130       .  S
N29         Co43   2.130   1_554  S
N30          N42   1.319       .  A
N30          N46   1.314       .  A
N30         Co39   2.075       .  S
C31          N35   1.344       .  A
C31          C45   1.480       .  S
C31          C63   1.496       .  S
C32          C51   1.467       .  S
C32          H36   1.082       .  S
N33          C44   1.331       .  A
N33        Co604   2.082       .  S
C37          N53   1.365       .  A
C37          C49   1.469       .  S
C37          C76   1.499       .  S
Co39        N563   2.103       .  S
Co39        N578   2.097       .  S
Co39       Cl611   2.426       .  S
N40          C51   1.362       .  A
C41          C85   1.513       .  S
Co43        N586   2.115       .  S
Co43        N594   2.081       .  S
Co43        Cl50   2.450       .  S
Cl50       Co567   2.439       .  S
Cl50       Co600   2.431       .  S
C51          C54   1.502       .  S
C54          C55   1.408       .  A
C54          C59   1.425       .  A
C55          H60   1.084       .  S
C55          C56   1.401       .  A
C56         C550   1.478       .  S
C56          C57   1.384       .  A
C57          H61   1.087       .  S
C57          C58   1.397       .  A
C58         C154   1.483       .  S
C58          C59   1.426       .  A
C59          H62   1.083       .  S
C63          C64   1.411       .  A
C63          C68   1.421       .  A
C64          H69   1.084       .  S
C64          C65   1.385       .  A
C65         C534   1.479       .  S
C65          C66   1.390       .  A
C66          H70   1.083       .  S
C66          C67   1.412       .  A
C67         C164   1.491       .  S
C67          C68   1.424       .  A
C68          H71   1.082       .  S
C72         C174   1.487       .  S
C72          C73   1.390       .  A
C72          C77   1.430       .  A
C73          H78   1.087       .  S
C73          C74   1.380       .  A
C74         C518   1.460       .  S
C74          C75   1.390       .  A
C75          H79   1.084       .  S
C75          C76   1.405       .  A
C76          C77   1.431       .  A
C77          H80   1.082       .  S
C81         C160   1.513       .  S
C81          C82   1.421       .  A
C81          C86   1.435       .  A
C82          H87   1.078       .  S
C82          C83   1.400       .  A
C83         C499   1.500       .  S
C83          C84   1.395       .  A
C84          H88   1.085       .  S
C84          C85   1.410       .  A
C85          C86   1.429       .  A
C86          H89   1.082       .  S
N90          C95   1.352       .  A
N90        C2338   1.356       .  A
N90         H122   1.040       .  S
N91          C99   1.341       .  A
N91         C659   1.341   1_554  A
N92          C97   1.351       .  A
N92        C2340   1.357       .  A
N92         H123   1.040       .  S
N93         C101   1.352       .  A
N93         C661   1.353   1_554  A
C94        N2334   1.353       .  A
C94         C102   1.378       .  A
C94         C110   1.398   1_655  A
C95         C111   1.424       .  A
C95         C103   1.393       .  A
C96        N2336   1.356   1_455  A
C96         C104   1.381       .  A
C96         C113   1.409       .  A
C97         C112   1.422       .  A
C97         C105   1.394       .  A
C98         N652   1.341       .  A
C98         C110   1.390       .  A
C98         C106   1.378       .  A
C99         C113   1.396       .  A
C99         C107   1.388       .  A
C100        N654   1.355       .  A
C100        C108   1.385       .  A
C100        C111   1.418       .  A
C101        C109   1.387       .  A
C101        C112   1.415       .  A
C102        H114   1.082       .  S
C102       C2347   1.356       .  A
C103        H115   1.077       .  S
C103       C2346   1.362       .  A
C104        H116   1.083       .  S
C104       C2349   1.372   1_455  A
C105        H117   1.081       .  S
C105       C2348   1.369       .  A
C106        H118   1.079       .  S
C106        C668   1.356       .  A
C107        H119   1.079       .  S
C107        C667   1.369   1_554  A
C108        H120   1.083       .  S
C108        C670   1.379       .  A
C109        H121   1.083       .  S
C109        C669   1.380   1_554  A
C110        C515   1.472       .  S
C111        C502   1.496       .  S
C112        C531   1.488       .  S
C113        C547   1.493       .  S
C124        N142   1.349       .  A
C124        C161   1.490       .  S
C124        C265   1.510       .  S
N125        N142   1.319       .  A
N125        N147   1.316       .  A
N125      Co2406   2.077       .  S
C126        N151   1.356       .  A
C126        C164   1.473       .  S
C126        H171   1.081       .  S
H127        C168   1.077       .  S
C128        N152   1.335       .  A
C128        C132   1.470       .  S
C128        H157   1.081       .  S
Co129       N169   2.101       .  S
Co129       N145   2.099       .  S
Co129      N2391   2.124       .  S
Co129      N2381   2.095       .  S
Co129      Cl173   2.451       .  S
N130        C168   1.344       .  A
N130        N137   1.320       .  A
N130      Co2375   2.115       .  S
Co131       N151   2.105       .  S
Co131       N138   2.147       .  S
Co131      N2374   2.122       .  S
Co131      N2378   2.113       .  S
Co131      Cl173   2.501       .  S
C132        N170   1.356       .  A
C132        C247   1.479       .  S
N133        N140   1.313       .  A
N133        N163   1.330       .  A
N133      Co2410   2.098       .  S
N134        N152   1.319       .  A
N134        N170   1.330       .  A
N134      Co2375   2.094       .  S
N135        C164   1.347       .  A
N135        N145   1.318       .  A
H136        C161   1.082       .  S
N137        N158   1.323       .  A
N137      Co2373   2.099       .  S
N138        N156   1.321       .  A
N138        N143   1.348       .  A
C139        N143   1.371       .  A
C139        C167   1.460       .  S
C139        C278   1.523       .  S
N140        C155   1.343       .  A
N140      Co2406   2.101       .  S
C141        N169   1.352       .  A
C141        C144   1.468       .  S
C141        H175   1.081       .  S
C144        N165   1.363       .  A
C144        C260   1.502       .  S
N145        N151   1.323       .  A
N146        C172   1.336       .  A
N146        N148   1.320       .  A
N146       Co162   2.092       .  S
N147        C161   1.362       .  A
N147      Co2373   2.136       .  S
N148        N176   1.340       .  A
N148       Co166   2.133       .  S
H149        C172   1.080       .  S
H150        C167   1.082       .  S
N152      Co2410   2.096       .  S
N153        N165   1.330       .  A
N153        N169   1.319       .  A
N153       Co162   2.134       .  S
C154        N158   1.359       .  A
C154        C168   1.473       .  S
C155        C174   1.479       .  S
C155        H159   1.082       .  S
N156        C167   1.322       .  A
N156       Co166   2.076       .  S
C160        N176   1.365       .  A
C160        C172   1.467       .  S
Co162      N2369   2.085       .  S
Co162      N2384   2.097       .  S
Co162      Cl173   2.442       .  S
N163        C174   1.359       .  A
Co166      N2377   2.087       .  S
Co166      N2396   2.092       .  S
Co166      Cl173   2.440       .  S
C177        C178   1.405       .  A
C177        C182   1.441       .  A
C178        H183   1.084       .  S
C178        C179   1.383       .  A
C179        C486   1.475       .  S
C179        C180   1.381       .  A
C180        H184   1.086       .  S
C180        C181   1.401       .  A
C181        C347   1.503       .  S
C181        C182   1.440       .  A
C182        H185   1.082       .  S
C186        C187   1.410       .  A
C186        C191   1.434       .  A
C187        H192   1.084       .  S
C187        C188   1.392       .  A
C188        C470   1.480       .  S
C188        C189   1.382       .  A
C189        H193   1.083       .  S
C189        C190   1.404       .  A
C190        C357   1.502       .  S
C190        C191   1.427       .  A
C191        H194   1.082       .  S
C195        C196   1.399       .  A
C195        C200   1.419       .  A
C196        H201   1.085       .  S
C196        C197   1.386       .  A
C197        C454   1.495       .  S
C197        C198   1.411       .  A
C198        H202   1.083       .  S
C198        C199   1.423       .  A
C199        C353   1.509       .  S
C199        C200   1.422       .  A
C200        H203   1.083       .  S
C204        C367   1.482       .  S
C204        C205   1.413       .  A
C204        C209   1.411       .  A
C205        H210   1.083       .  S
C205        C206   1.403       .  A
C206        C438   1.483       .  S
C206        C207   1.386       .  A
C207        H211   1.085       .  S
C207        C208   1.400       .  A
C208        C209   1.408       .  A
C209        H212   1.084       .  S
N213        C217   1.360       .  A
N213        C779   1.347       .  A
N213        H245   1.039       .  S
N214        C222   1.345       .  A
N214       C1343   1.356       .  A
N215        C219   1.357       .  A
N215        C781   1.358       .  A
N215        H246   1.041       .  S
N216        C224   1.340       .  A
N216       C1345   1.348       .  A
C217        C225   1.384       .  A
C217        C233   1.416       .  A
C218        N774   1.347       .  A
C218        C234   1.416       .  A
C218        C226   1.393       .  A
C219        C227   1.391       .  A
C219        C236   1.420       .  A
C220        N776   1.358       .  A
C220        C235   1.414       .  A
C220        C228   1.381       .  A
C221       N1336   1.354   1_545  A
C221        C233   1.412       .  A
C221        C229   1.385   1_545  A
C222        C236   1.417       .  A
C222        C230   1.391       .  A
C223       N1338   1.350   1_545  A
C223        C231   1.381       .  A
C223        C234   1.400       .  A
C224        C232   1.393       .  A
C224        C235   1.407       .  A
C225        H237   1.082       .  S
C225        C787   1.372       .  A
C226        H238   1.074       .  S
C226        C786   1.366       .  A
C227        H239   1.082       .  S
C227        C789   1.377       .  A
C228        H240   1.082       .  S
C228        C788   1.378       .  A
C229        H241   1.082   1_565  S
C229       C1352   1.373       .  A
C230        H242   1.082       .  S
C230       C1351   1.375       .  A
C231        H243   1.079       .  S
C231       C1354   1.357   1_545  A
C232        H244   1.078       .  S
C232       C1353   1.361       .  A
C233        C467   1.484       .  S
C234        C451   1.500       .  S
C235        C435   1.486       .  S
C236        C483   1.479       .  S
C247        C248   1.395       .  A
C247        C252   1.421       .  A
C248        H253   1.087       .  S
C248        C249   1.383       .  A
C249        C419   1.474       .  S
C249        C250   1.398       .  A
C250        H254   1.084       .  S
C250        C251   1.411       .  A
C251        C317   1.496       .  S
C251        C252   1.421       .  A
C252        H255   1.083       .  S
C256        C332   1.496       .  S
C256        C257   1.397       .  A
C256        C261   1.430       .  A
C257        H262   1.084       .  S
C257        C258   1.390       .  A
C258        C403   1.481       .  S
C258        C259   1.400       .  A
C259        H263   1.081       .  S
C259        C260   1.399       .  A
C260        C261   1.430       .  A
C261        H264   1.083       .  S
C265        C266   1.424       .  A
C265        C270   1.412       .  A
C266        H271   1.082       .  S
C266        C267   1.428       .  A
C267        C337   1.492       .  S
C267        C268   1.402       .  A
C268        H272   1.085       .  S
C268        C269   1.393       .  A
C269        C390   1.500       .  S
C269        C270   1.402       .  A
C270        H273   1.081       .  S
C274        C325   1.521       .  S
C274        C275   1.411       .  A
C274        C279   1.447       .  A
C275        H280   1.079       .  S
C275        C276   1.379       .  A
C276        C371   1.488       .  S
C276        C277   1.381       .  A
C277        H281   1.082       .  S
C277        C278   1.413       .  A
C278        C279   1.446       .  A
C279        H282   1.082       .  S
N283        C288   1.354       .  A
N283       C1409   1.350       .  A
N283        H315   1.044       .  S
N284        C291   1.338       .  A
N284       C2536   1.341       .  A
N285        C290   1.353       .  A
N285       C1411   1.338       .  A
N285        H316   1.037       .  S
N286        C293   1.351       .  A
N286       C2538   1.350       .  A
C287       N1405   1.348   1_545  A
C287        C295   1.383   1_545  A
C287        C303   1.406       .  A
C288        C304   1.421       .  A
C288        C296   1.391       .  A
C289       N1407   1.336   1_545  A
C289        C297   1.373       .  A
C289        C306   1.404       .  A
C290        C305   1.413       .  A
C290        C298   1.381       .  A
C291        C303   1.396       .  A
C291        C299   1.377       .  A
C292       N2528   1.341   1_455  A
C292        C306   1.419       .  A
C292        C300   1.397       .  A
C293        C301   1.379       .  A
C293        C304   1.407       .  A
C294       N2530   1.350   1_455  A
C294        C302   1.393       .  A
C294        C305   1.421       .  A
C295        H307   1.082   1_565  S
C295       C1418   1.380       .  A
C296        H308   1.082       .  S
C296       C1417   1.379       .  A
C297        H309   1.068       .  S
C297       C1420   1.374   1_545  A
C298        H310   1.076       .  S
C298       C1419   1.372       .  A
C299        H311   1.082       .  S
C299       C2544   1.382       .  A
C300        H312   1.080       .  S
C300       C2543   1.382   1_455  A
C301        H313   1.082       .  S
C301       C2546   1.377       .  A
C302        H314   1.073       .  S
C302       C2545   1.374   1_455  A
C303        C406   1.495       .  S
C304        C374   1.488       .  S
C305        C422   1.485       .  S
C306        C387   1.533       .  S
C317        N335   1.353       .  A
C317        C354   1.473       .  S
N318        N335   1.323       .  A
N318        N340   1.320       .  A
N318      Co1477   2.104       .  S
C319        N344   1.363       .  A
C319        C357   1.479       .  S
C319        H364   1.079       .  S
H320        C361   1.081       .  S
C321        N345   1.330       .  A
C321        C325   1.472       .  S
C321        H350   1.081       .  S
Co322       N362   2.121       .  S
Co322       N338   2.075       .  S
Co322      N1462   2.101   1_545  S
Co322      N1452   2.088   1_545  S
Co322      Cl366   2.474       .  S
N323        C361   1.357       .  A
N323        N330   1.321       .  A
N323      Co1446   2.106       .  S
Co324       N344   2.127       .  S
Co324       N331   2.122       .  S
Co324      N1445   2.131   1_545  S
Co324      N1449   2.118   1_545  S
Co324      Cl366   2.478       .  S
C325        N363   1.365       .  A
N326        N333   1.322       .  A
N326        N356   1.331       .  A
N326       Co359   2.120       .  S
N327        N345   1.320       .  A
N327        N363   1.342       .  A
N327      Co1446   2.127       .  S
N328        C357   1.347       .  A
N328        N338   1.311       .  A
H329        C354   1.081       .  S
N330        N351   1.320       .  A
N330      Co1444   2.112       .  S
N331        N349   1.321       .  A
N331        N336   1.332       .  A
C332        N336   1.360       .  A
C332        C360   1.479       .  S
N333        C348   1.336       .  A
N333      Co1477   2.080       .  S
C334        N362   1.353       .  A
C334        C337   1.477       .  S
C334        H368   1.079       .  S
C337        N358   1.355       .  A
N338        N344   1.320       .  A
N339        C365   1.341       .  A
N339        N341   1.320       .  A
N339       Co355   2.089       .  S
N340        C354   1.352       .  A
N340      Co1444   2.099       .  S
N341        N369   1.338       .  A
N341      Co1481   2.136       .  S
H342        C365   1.082       .  S
H343        C360   1.082       .  S
N345       Co359   2.104       .  S
N346        N358   1.321       .  A
N346        N362   1.318       .  A
N346       Co355   2.093       .  S
C347        N351   1.359       .  A
C347        C361   1.470       .  S
C348        C367   1.457       .  S
C348        H352   1.082       .  S
N349        C360   1.343       .  A
N349      Co1481   2.112       .  S
C353        N369   1.365       .  A
C353        C365   1.461       .  S
Co355      N1440   2.107   1_545  S
Co355      N1455   2.086   1_545  S
Co355      Cl366   2.440       .  S
N356        C367   1.358       .  A
Co359      N1463   2.107       .  S
Co359      N1471   2.094       .  S
Co359     Cl1488   2.463       .  S
Cl366     Co1481   2.465       .  S
C370        H377   1.084       .  S
C370        C371   1.407       .  A
C370        C375   1.413       .  A
C371        C372   1.423       .  A
C372        C373   1.388       .  A
C372        C379   1.511       .  S
C373        H378   1.078       .  S
C373        C374   1.395       .  A
C374        C375   1.415       .  A
C375        C376   1.504       .  S
C376        H380   1.107       .  S
C376        H381   1.110       .  S
C376        H382   1.109       .  S
C379        H383   1.106       .  S
C379        H384   1.101       .  S
C379        H385   1.110       .  S
C386        H393   1.076       .  S
C386        C387   1.418       .  A
C386        C391   1.398       .  A
C387        C388   1.435       .  A
C388        C389   1.409       .  A
C388        C395   1.509       .  S
C389        H394   1.084       .  S
C389        C390   1.405       .  A
C390        C391   1.405       .  A
C391        C392   1.502       .  S
C392        H396   1.105       .  S
C392        H397   1.107       .  S
C392        H398   1.111       .  S
C395        H399   1.111       .  S
C395        H400   1.090       .  S
C395        H401   1.111       .  S
C402        H409   1.084       .  S
C402        C403   1.401       .  A
C402        C407   1.387       .  A
C403        C404   1.415       .  A
C404        C405   1.405       .  A
C404        C411   1.507       .  S
C405        H410   1.083   1_545  S
C405        C406   1.410       .  A
C406        C407   1.417       .  A
C407        C408   1.503       .  S
C408        H412   1.107       .  S
C408        H413   1.109       .  S
C408        H414   1.099       .  S
C411        H415   1.109       .  S
C411        H416   1.111   1_545  S
C411        H417   1.110   1_545  S
C418        H425   1.085       .  S
C418        C419   1.400       .  A
C418        C423   1.404       .  A
C419        C420   1.414       .  A
C420        C421   1.397       .  A
C420        C427   1.510       .  S
C421        H426   1.082       .  S
C421        C422   1.397       .  A
C422        C423   1.423       .  A
C423        C424   1.504       .  S
C424        H428   1.105       .  S
C424        H429   1.106   1_455  S
C424        H430   1.099   1_455  S
C427        H431   1.109       .  S
C427        H432   1.109       .  S
C427        H433   1.111       .  S
C434        H441   1.083       .  S
C434        C435   1.406       .  A
C434        C439   1.403       .  A
C435        C436   1.410       .  A
C436        C437   1.404       .  A
C436        C443   1.502       .  S
C437        H442   1.085       .  S
C437        C438   1.407       .  A
C438        C439   1.412       .  A
C439        C440   1.508       .  S
C440        H444   1.108       .  S
C440        H445   1.110       .  S
C440        H446   1.108       .  S
C443        H447   1.110       .  S
C443        H448   1.110       .  S
C443        H449   1.110       .  S
C450        H457   1.083       .  S
C450        C451   1.408       .  A
C450        C455   1.412       .  A
C451        C452   1.421       .  A
C452        C453   1.406       .  A
C452        C459   1.501       .  S
C453        H458   1.085       .  S
C453        C454   1.400       .  A
C454        C455   1.417       .  A
C455        C456   1.507       .  S
C456        H460   1.110       .  S
C456        H461   1.108       .  S
C456        H462   1.110       .  S
C459        H463   1.107       .  S
C459        H464   1.103       .  S
C459        H465   1.109       .  S
C466        H473   1.085       .  S
C466        C467   1.395       .  A
C466        C471   1.393       .  A
C467        C468   1.411       .  A
C468        C469   1.409       .  A
C468        C475   1.506       .  S
C469        H474   1.083       .  S
C469        C470   1.403       .  A
C470        C471   1.421       .  A
C471        C472   1.511       .  S
C472        H476   1.111       .  S
C472        H477   1.105       .  S
C472        H478   1.109       .  S
C475        H479   1.108       .  S
C475        H480   1.109       .  S
C475        H481   1.111       .  S
C482        H489   1.086       .  S
C482        C483   1.390       .  A
C482        C487   1.378       .  A
C483        C484   1.406       .  A
C484        C485   1.407       .  A
C484        C491   1.492       .  S
C485        H490   1.084       .  S
C485        C486   1.404       .  A
C486        C487   1.428       .  A
C487        C488   1.511       .  S
C488        H492   1.111       .  S
C488        H493   1.100       .  S
C488        H494   1.098       .  S
C491        H495   1.111       .  S
C491        H496   1.102       .  S
C491        H497   1.109       .  S
C498        H505   1.066       .  S
C498        C499   1.401       .  A
C498        C503   1.384       .  A
C499        C500   1.414       .  A
C500        C501   1.422       .  A
C500        C507   1.505       .  S
C501        H506   1.083       .  S
C501        C502   1.415       .  A
C502        C503   1.404       .  A
C503        C504   1.509       .  S
C504        H508   1.111       .  S
C504        H509   1.108       .  S
C504        H510   1.109       .  S
C507        H511   1.109       .  S
C507        H512   1.110       .  S
C507        H513   1.111       .  S
C514        H521   1.083       .  S
C514        C515   1.406       .  A
C514        C519   1.396       .  A
C515        C516   1.402       .  A
C516        C517   1.393       .  A
C516        C523   1.503       .  S
C517        H522   1.085       .  S
C517        C518   1.406       .  A
C518        C519   1.402       .  A
C519        C520   1.505       .  S
C520        H524   1.103       .  S
C520        H525   1.110       .  S
C520        H526   1.108       .  S
C523        H527   1.107       .  S
C523        H528   1.106       .  S
C523        H529   1.111       .  S
C530        H537   1.082       .  S
C530        C531   1.399       .  A
C530        C535   1.384       .  A
C531        C532   1.413       .  A
C532        C533   1.413       .  A
C532        C539   1.504       .  S
C533        H538   1.084       .  S
C533        C534   1.408       .  A
C534        C535   1.416       .  A
C535        C536   1.512       .  S
C536        H540   1.111       .  S
C536        H541   1.109       .  S
C536        H542   1.105       .  S
C539        H543   1.110       .  S
C539        H544   1.107       .  S
C539        H545   1.110       .  S
C546        H553   1.085       .  S
C546        C547   1.411       .  A
C546        C551   1.405       .  A
C547        C548   1.406       .  A
C548        C549   1.389       .  A
C548        C555   1.488       .  S
C549        H554   1.086       .  S
C549        C550   1.402       .  A
C550        C551   1.413       .  A
C551        C552   1.505       .  S
C552        H556   1.111       .  S
C552        H557   1.108       .  S
C552        H558   1.109   1_455  S
C555        H559   1.111       .  S
C555        H560   1.099       .  S
C555        H561   1.110       .  S
C562        N580   1.353       .  A
C562        C599   1.469       .  S
C562        C747   1.494       .  S
N563        N580   1.322       .  A
N563        N585   1.318       .  A
C564        N589   1.367       .  A
C564        C602   1.481       .  S
C564        H609   1.078       .  S
H565        C606   1.081       .  S
C566        N590   1.334       .  A
C566        C570   1.471       .  S
C566        H595   1.082       .  S
Co567       N607   2.096       .  S
Co567       N583   2.068       .  S
N568        C606   1.360       .  A
N568        N575   1.319       .  A
N568       Co569   2.111       .  S
Co569       N572   2.114       .  S
Co569      Cl611   2.489       .  S
C570        N608   1.361       .  A
C570        C738   1.512       .  S
N571        N578   1.320       .  A
N571        N601   1.333       .  A
N571       Co604   2.113       .  S
N572        N590   1.323       .  A
N572        N608   1.340       .  A
N573        C602   1.343       .  A
N573        N583   1.306       .  A
H574        C599   1.082       .  S
N575        N596   1.312       .  A
N576        N594   1.316       .  A
N576        N581   1.325       .  A
C577        N581   1.356       .  A
C577        C605   1.471       .  S
C577        C769   1.476       .  S
N578        C593   1.338       .  A
C579        N607   1.350       .  A
C579        C582   1.472       .  S
C579        H613   1.081       .  S
C582        N603   1.351       .  A
C582        C756   1.482       .  S
N583        N589   1.317       .  A
N584        C610   1.339       .  A
N584        N586   1.314       .  A
N584       Co600   2.094       .  S
N585        C599   1.353       .  A
N586        N614   1.334       .  A
H587        C610   1.082       .  S
H588        C605   1.081       .  S
N590       Co604   2.120       .  S
N591        N603   1.320       .  A
N591        N607   1.315       .  A
N591       Co600   2.078       .  S
C592        N596   1.347       .  A
C592        C606   1.474       .  S
C592        C624   1.492       .  S
C593        C612   1.466       .  S
C593        H597   1.082       .  S
N594        C605   1.333       .  A
C598        N614   1.364       .  A
C598        C610   1.472       .  S
C598        C637   1.497       .  S
N601        C612   1.359       .  A
C602        C646   1.503       .  S
Co604      Cl611   2.448       .  S
C612        C615   1.493       .  S
C615        C616   1.409       .  A
C615        C620   1.420       .  A
C616        H621   1.084       .  S
C616        C617   1.402       .  A
C617       C1111   1.480       .  S
C617        C618   1.387       .  A
C618        H622   1.086       .  S
C618        C619   1.397       .  A
C619        C715   1.479       .  S
C619        C620   1.419       .  A
C620        H623   1.083       .  S
C624        C625   1.406       .  A
C624        C629   1.422       .  A
C625        H630   1.085       .  S
C625        C626   1.383       .  A
C626       C1095   1.476       .  S
C626        C627   1.388       .  A
C627        H631   1.083       .  S
C627        C628   1.410       .  A
C628        C725   1.488       .  S
C628        C629   1.425       .  A
C629        H632   1.083       .  S
C633        C735   1.490       .  S
C633        C634   1.392       .  A
C633        C638   1.430       .  A
C634        H639   1.086       .  S
C634        C635   1.387       .  A
C635       C1079   1.465       .  S
C635        C636   1.389       .  A
C636        H640   1.084       .  S
C636        C637   1.401       .  A
C637        C638   1.430       .  A
C638        H641   1.082       .  S
C642        C721   1.514       .  S
C642        C643   1.426       .  A
C642        C647   1.431       .  A
C643        H648   1.080       .  S
C643        C644   1.408       .  A
C644       C1060   1.502       .  S
C644        C645   1.387       .  A
C645        H649   1.085       .  S
C645        C646   1.407       .  A
C646        C647   1.425       .  A
C647        H650   1.082       .  S
N651        C656   1.351       .  A
N651       C2899   1.355       .  A
N651        H683   1.040       .  S
N652        C660   1.342       .  A
N653        C658   1.350       .  A
N653       C2901   1.359       .  A
N653        H684   1.039       .  S
N654        C662   1.352       .  A
C655       N2895   1.357   1_455  A
C655        C663   1.384   1_455  A
C655        C671   1.412       .  A
C656        C672   1.421       .  A
C656        C664   1.392       .  A
C657       N2897   1.360       .  A
C657        C665   1.379       .  A
C657        C674   1.409   1_655  A
C658        C673   1.426       .  A
C658        C666   1.397       .  A
C659        C671   1.402       .  A
C659        C667   1.383       .  A
C660        C674   1.394       .  A
C660        C668   1.385       .  A
C661        C669   1.383       .  A
C661        C672   1.416       .  A
C662        C670   1.386       .  A
C662        C673   1.416       .  A
C663        H675   1.080   1_655  S
C663       C2908   1.357       .  A
C664        H676   1.073       .  S
C664       C2907   1.360       .  A
C665        H677   1.083   1_655  S
C665       C2910   1.368       .  A
C666        H678   1.079       .  S
C666       C2909   1.366       .  A
C667        H679   1.082       .  S
C668        H680   1.074       .  S
C669        H681   1.082       .  S
C670        H682   1.083       .  S
C671       C1076   1.482       .  S
C672       C1063   1.495       .  S
C673       C1092   1.486       .  S
C674       C1108   1.495       .  S
C685        N703   1.357       .  A
C685        C722   1.478       .  S
C685        C826   1.498       .  S
N686        N703   1.323       .  A
N686        N708   1.317       .  A
N686      Co2967   2.101       .  S
C687        N712   1.353       .  A
C687        C725   1.469       .  S
C687        H732   1.081       .  S
H688        C729   1.075       .  S
C689        N713   1.330       .  A
C689        C693   1.462       .  S
C689        H718   1.080       .  S
Co690      N2952   2.124       .  S
Co690      N2942   2.090       .  S
Co690       N730   2.099       .  S
Co690       N706   2.106       .  S
Co690      Cl734   2.442       .  S
N691        C729   1.347       .  A
N691        N698   1.319       .  A
N691      Co2936   2.118       .  S
Co692      N2935   2.116       .  S
Co692      N2939   2.098       .  S
Co692       N712   2.088       .  S
Co692       N699   2.137       .  S
Co692      Cl734   2.508       .  S
C693        N731   1.362       .  A
C693        C808   1.486       .  S
N694        N701   1.314       .  A
N694        N724   1.329       .  A
N694      Co2971   2.090       .  S
N695        N713   1.316       .  A
N695        N731   1.333       .  A
N695      Co2936   2.111       .  S
N696        C725   1.349       .  A
N696        N706   1.318       .  A
H697        C722   1.082       .  S
N698        N719   1.320       .  A
N698      Co2934   2.077       .  S
N699        N717   1.322       .  A
N699        N704   1.347       .  A
C700        N704   1.368       .  A
C700        C728   1.469       .  S
C700        C839   1.527       .  S
N701        C716   1.348       .  A
N701      Co2967   2.118       .  S
C702        N730   1.351       .  A
C702        C705   1.467       .  S
C702        H736   1.081       .  S
C705        N726   1.360       .  A
C705        C821   1.496       .  S
N706        N712   1.322       .  A
N707        C733   1.337       .  A
N707        N709   1.319       .  A
N707       Co723   2.088       .  S
N708        C722   1.354       .  A
N708      Co2934   2.112       .  S
N709        N737   1.341       .  A
N709       Co727   2.141       .  S
H710        C733   1.081       .  S
H711        C728   1.081       .  S
N713      Co2971   2.078       .  S
N714        N726   1.327       .  A
N714        N730   1.320       .  A
N714       Co723   2.127       .  S
C715        N719   1.353       .  A
C715        C729   1.474       .  S
C716        C735   1.484       .  S
C716        H720   1.082       .  S
N717        C728   1.324       .  A
N717       Co727   2.095       .  S
C721        N737   1.368       .  A
C721        C733   1.463       .  S
Co723      N2930   2.076       .  S
Co723      N2945   2.100       .  S
Co723      Cl734   2.444       .  S
N724        C735   1.354       .  A
Co727      N2938   2.093       .  S
Co727      N2957   2.098       .  S
Co727      Cl734   2.435       .  S
C738        C739   1.409       .  A
C738        C743   1.441       .  A
C739        H744   1.082       .  S
C739        C740   1.384       .  A
C740       C1047   1.478       .  S
C740        C741   1.384       .  A
C741        H745   1.085       .  S
C741        C742   1.405       .  A
C742        C908   1.510       .  S
C742        C743   1.441       .  A
C743        H746   1.082       .  S
C747        C748   1.412       .  A
C747        C752   1.430       .  A
C748        H753   1.084       .  S
C748        C749   1.393       .  A
C749       C1031   1.480       .  S
C749        C750   1.384       .  A
C750        H754   1.083       .  S
C750        C751   1.404       .  A
C751        C918   1.497       .  S
C751        C752   1.425       .  A
C752        H755   1.083       .  S
C756        C757   1.405       .  A
C756        C761   1.417       .  A
C757        H762   1.085       .  S
C757        C758   1.391       .  A
C758       C1015   1.489       .  S
C758        C759   1.403       .  A
C759        H763   1.083       .  S
C759        C760   1.418       .  A
C760        C914   1.499       .  S
C760        C761   1.417       .  A
C761        H764   1.083       .  S
C765        C928   1.486       .  S
C765        C766   1.415       .  A
C765        C770   1.413       .  A
C766        H771   1.083       .  S
C766        C767   1.406       .  A
C767        C999   1.482       .  S
C767        C768   1.387       .  A
C768        H772   1.087       .  S
C768        C769   1.399       .  A
C769        C770   1.410       .  A
C770        H773   1.083       .  S
N774        C778   1.364       .  A
N774        H806   1.038       .  S
N775       C1904   1.356       .  A
N775        C783   1.345       .  A
N776        C780   1.356       .  A
N776        H807   1.041       .  S
N777       C1906   1.350       .  A
N777        C785   1.340       .  A
C778        C786   1.379       .  A
C778        C794   1.417       .  A
C779        C795   1.412   1_554  A
C779        C787   1.389       .  A
C780        C788   1.390       .  A
C780        C797   1.418       .  A
C781        C796   1.413   1_554  A
C781        C789   1.381       .  A
C782       N1897   1.355   1_545  A
C782        C794   1.414       .  A
C782        C790   1.384   1_545  A
C783        C797   1.415       .  A
C783        C791   1.390       .  A
C784       N1899   1.350   1_545  A
C784        C792   1.382   1_545  A
C784        C795   1.404       .  A
C785        C793   1.392       .  A
C785        C796   1.409       .  A
C786        H798   1.083       .  S
C787        H799   1.081       .  S
C788        H800   1.082       .  S
C789        H801   1.082       .  S
C790        H802   1.082   1_565  S
C790       C1913   1.375       .  A
C791        H803   1.083       .  S
C791       C1912   1.377       .  A
C792        H804   1.081   1_565  S
C792       C1915   1.370       .  A
C793        H805   1.078       .  S
C793       C1914   1.361       .  A
C794       C1028   1.480       .  S
C795       C1012   1.497       .  S
C796        C996   1.488       .  S
C797       C1044   1.480       .  S
C808        C809   1.400       .  A
C808        C813   1.423       .  A
C809        H814   1.086       .  S
C809        C810   1.385       .  A
C810        C980   1.474       .  S
C810        C811   1.391       .  A
C811        H815   1.083       .  S
C811        C812   1.409       .  A
C812        C878   1.492       .  S
C812        C813   1.424       .  A
C813        H816   1.083       .  S
C817        C893   1.489       .  S
C817        C818   1.398       .  A
C817        C822   1.425       .  A
C818        H823   1.085       .  S
C818        C819   1.389       .  A
C819        C964   1.482       .  S
C819        C820   1.401       .  A
C820        H824   1.078       .  S
C820        C821   1.400       .  A
C821        C822   1.425       .  A
C822        H825   1.083       .  S
C826        C827   1.424       .  A
C826        C831   1.404       .  A
C827        H832   1.082       .  S
C827        C828   1.423       .  A
C828        C898   1.500       .  S
C828        C829   1.404       .  A
C829        H833   1.079       .  S
C829        C830   1.409       .  A
C830        C951   1.515       .  S
C830        C831   1.399       .  A
C831        H834   1.074       .  S
C835        C886   1.530       .  S
C835        C836   1.414       .  A
C835        C840   1.451       .  A
C836        H841   1.079       .  S
C836        C837   1.382       .  A
C837        C932   1.487       .  S
C837        C838   1.381       .  A
C838        H842   1.082       .  S
C838        C839   1.410       .  A
C839        C840   1.450       .  A
C840        H843   1.082       .  S
N844        C849   1.353       .  A
N844       C1970   1.349       .  A
N844        H876   1.043       .  S
N845        C852   1.336       .  A
N845       C3097   1.339       .  A
N846        C851   1.345       .  A
N846       C1972   1.330       .  A
N846        H877   1.042       .  S
N847        C854   1.352       .  A
N847       C3099   1.349       .  A
C848       N1966   1.353       .  A
C848        C856   1.382       .  A
C848        C864   1.408   1_565  A
C849        C865   1.421       .  A
C849        C857   1.391       .  A
C850       N1968   1.332   1_545  A
C850        C858   1.384       .  A
C850        C867   1.391       .  A
C851        C866   1.411       .  A
C851        C859   1.384       .  A
C852        C864   1.388       .  A
C852        C860   1.376       .  A
C853       N3089   1.356   1_455  A
C853        C867   1.417       .  A
C853        C861   1.386   1_455  A
C854        C862   1.379       .  A
C854        C865   1.408       .  A
C855       N3091   1.352   1_455  A
C855        C863   1.391       .  A
C855        C866   1.418       .  A
C856        H868   1.082       .  S
C856       C1979   1.378       .  A
C857        H869   1.081       .  S
C857       C1978   1.383       .  A
C858        H870   1.079       .  S
C858       C1981   1.382   1_545  A
C859        H871   1.078       .  S
C859       C1980   1.382       .  A
C860        H872   1.082       .  S
C860       C3105   1.382       .  A
C861        H873   1.079       .  S
C861       C3104   1.367       .  A
C862        H874   1.082       .  S
C862       C3107   1.374       .  A
C863        H875   1.074       .  S
C863       C3106   1.372   1_455  A
C864        C967   1.499       .  S
C865        C935   1.488       .  S
C866        C983   1.488       .  S
C867        C948   1.517       .  S
C878        N896   1.353       .  A
C878        C915   1.471       .  S
N879        N896   1.321       .  A
N879        N901   1.318       .  A
N879      Co2038   2.099       .  S
C880        N905   1.360       .  A
C880        C918   1.474       .  S
C880        H925   1.075       .  S
H881        C922   1.081       .  S
C882        N906   1.330       .  A
C882        C886   1.471       .  S
C882        H911   1.081       .  S
Co883      N2023   2.112   1_545  S
Co883      N2013   2.096   1_545  S
Co883       N923   2.134       .  S
Co883       N899   2.070       .  S
Co883      Cl927   2.472       .  S
N884        C922   1.362       .  A
N884        N891   1.321       .  A
N884      Co2007   2.127       .  S
Co885      N2006   2.140   1_545  S
Co885      N2010   2.119   1_545  S
Co885       N905   2.123       .  S
Co885       N892   2.122       .  S
Co885      Cl927   2.475       .  S
C886        N924   1.371       .  A
N887        N894   1.321       .  A
N887        N917   1.331       .  A
N887       Co920   2.121       .  S
N888        N906   1.321       .  A
N888        N924   1.346       .  A
N888      Co2007   2.145       .  S
N889        C918   1.347       .  A
N889        N899   1.312       .  A
H890        C915   1.082       .  S
N891        N912   1.320       .  A
N891      Co2005   2.103       .  S
N892        N910   1.321       .  A
N892        N897   1.330       .  A
C893        N897   1.359       .  A
C893        C921   1.477       .  S
N894        C909   1.339       .  A
N894      Co2038   2.080       .  S
C895        N923   1.356       .  A
C895        C898   1.483       .  S
C895        H929   1.080       .  S
C898        N919   1.353       .  A
N899        N905   1.319       .  A
N900        C926   1.334       .  A
N900        N902   1.317       .  A
N900       Co916   2.067       .  S
N901        C915   1.352       .  A
N901      Co2005   2.094       .  S
N902        N930   1.338       .  A
N902      Co2042   2.131       .  S
H903        C926   1.082       .  S
H904        C921   1.082       .  S
N906       Co920   2.104       .  S
N907        N919   1.323       .  A
N907        N923   1.317       .  A
N907       Co916   2.082       .  S
C908        N912   1.356       .  A
C908        C922   1.477       .  S
C909        C928   1.459       .  S
C909        H913   1.082       .  S
N910        C921   1.341       .  A
N910      Co2042   2.104       .  S
C914        N930   1.366       .  A
C914        C926   1.454       .  S
Co916      N2001   2.099   1_545  S
Co916      N2016   2.086   1_545  S
Co916      Cl927   2.433       .  S
N917        C928   1.359       .  A
Co920      N2024   2.118       .  S
Co920      N2032   2.102       .  S
Co920     Cl2049   2.466       .  S
Cl927     Co2042   2.471       .  S
C931        H938   1.084       .  S
C931        C932   1.407       .  A
C931        C936   1.414       .  A
C932        C933   1.420       .  A
C933        C934   1.388       .  A
C933        C940   1.510       .  S
C934        H939   1.073       .  S
C934        C935   1.394       .  A
C935        C936   1.411       .  A
C936        C937   1.501       .  S
C937        H941   1.108       .  S
C937        H942   1.109       .  S
C937        H943   1.106       .  S
C940        H944   1.106       .  S
C940        H945   1.095       .  S
C940        H946   1.104       .  S
C947        H954   1.079       .  S
C947        C948   1.402       .  A
C947        C952   1.402       .  A
C948        C949   1.428       .  A
C949        C950   1.402       .  A
C949        C956   1.513       .  S
C950        H955   1.082       .  S
C950        C951   1.409       .  A
C951        C952   1.429       .  A
C952        C953   1.510       .  S
C953        H957   1.109       .  S
C953        H958   1.107       .  S
C953        H959   1.107       .  S
C956        H960   1.108   1_545  S
C956        H961   1.106       .  S
C956        H962   1.112       .  S
C963        H970   1.085       .  S
C963        C964   1.399       .  A
C963        C968   1.388       .  A
C964        C965   1.415       .  A
C965        C966   1.405       .  A
C965        C972   1.506       .  S
C966        H971   1.083   1_545  S
C966        C967   1.410       .  A
C967        C968   1.422       .  A
C968        C969   1.503       .  S
C969        H973   1.106       .  S
C969        H974   1.109       .  S
C969        H975   1.100       .  S
C972        H976   1.109       .  S
C972        H977   1.110   1_545  S
C972        H978   1.111   1_545  S
C979        H986   1.085       .  S
C979        C980   1.395       .  A
C979        C984   1.395       .  A
C980        C981   1.415       .  A
C981        C982   1.402       .  A
C981        C988   1.509       .  S
C982        H987   1.084       .  S
C982        C983   1.403       .  A
C983        C984   1.423       .  A
C984        C985   1.504       .  S
C985        H989   1.111       .  S
C985        H990   1.105   1_455  S
C985        H991   1.094   1_455  S
C988        H992   1.109       .  S
C988        H993   1.110       .  S
C988        H994   1.111       .  S
C995       H1002   1.085   1_556  S
C995        C996   1.408       .  A
C995       C1000   1.402       .  A
C996        C997   1.408       .  A
C997        C998   1.407       .  A
C997       C1004   1.504       .  S
C998       H1003   1.084       .  S
C998        C999   1.410       .  A
C999       C1000   1.413       .  A
C1000      C1001   1.507       .  S
C1001      H1005   1.111       .  S
C1001      H1006   1.108       .  S
C1001      H1007   1.110   1_556  S
C1004      H1008   1.110       .  S
C1004      H1009   1.110       .  S
C1004      H1010   1.111       .  S
C1011      H1018   1.084       .  S
C1011      C1012   1.409       .  A
C1011      C1016   1.412       .  A
C1012      C1013   1.413       .  A
C1013      C1014   1.405       .  A
C1013      C1020   1.497       .  S
C1014      H1019   1.085       .  S
C1014      C1015   1.400       .  A
C1015      C1016   1.413       .  A
C1016      C1017   1.505       .  S
C1017      H1021   1.110       .  S
C1017      H1022   1.110       .  S
C1017      H1023   1.110       .  S
C1020      H1024   1.105       .  S
C1020      H1025   1.110       .  S
C1020      H1026   1.103       .  S
C1027      H1034   1.086       .  S
C1027      C1028   1.392       .  A
C1027      C1032   1.389       .  A
C1028      C1029   1.412       .  A
C1029      C1030   1.410       .  A
C1029      C1036   1.509       .  S
C1030      H1035   1.082       .  S
C1030      C1031   1.408       .  A
C1031      C1032   1.421       .  A
C1032      C1033   1.511       .  S
C1033      H1037   1.111       .  S
C1033      H1038   1.103       .  S
C1033      H1039   1.109       .  S
C1036      H1040   1.109       .  S
C1036      H1041   1.109       .  S
C1036      H1042   1.108       .  S
C1043      H1050   1.085       .  S
C1043      C1044   1.392       .  A
C1043      C1048   1.381       .  A
C1044      C1045   1.406       .  A
C1045      C1046   1.411       .  A
C1045      C1052   1.494       .  S
C1046      H1051   1.084       .  S
C1046      C1047   1.406       .  A
C1047      C1048   1.423       .  A
C1048      C1049   1.509       .  S
C1049      H1053   1.108       .  S
C1049      H1054   1.106       .  S
C1049      H1055   1.099       .  S
C1052      H1056   1.110       .  S
C1052      H1057   1.107       .  S
C1052      H1058   1.109       .  S
C1059      H1066   1.070       .  S
C1059      C1060   1.408       .  A
C1059      C1064   1.394       .  A
C1060      C1061   1.411       .  A
C1061      C1062   1.418       .  A
C1061      C1068   1.504       .  S
C1062      H1067   1.083       .  S
C1062      C1063   1.411       .  A
C1063      C1064   1.407       .  A
C1064      C1065   1.508       .  S
C1065      H1069   1.111       .  S
C1065      H1070   1.107       .  S
C1065      H1071   1.110       .  S
C1068      H1072   1.109       .  S
C1068      H1073   1.110       .  S
C1068      H1074   1.111       .  S
C1075      H1082   1.084       .  S
C1075      C1076   1.410       .  A
C1075      C1080   1.399       .  A
C1076      C1077   1.409       .  A
C1077      C1078   1.390       .  A
C1077      C1084   1.501       .  S
C1078      H1083   1.085       .  S
C1078      C1079   1.403       .  A
C1079      C1080   1.402       .  A
C1080      C1081   1.504       .  S
C1081      H1085   1.104       .  S
C1081      H1086   1.110       .  S
C1081      H1087   1.107       .  S
C1084      H1088   1.107       .  S
C1084      H1089   1.108       .  S
C1084      H1090   1.110       .  S
C1091      H1098   1.083       .  S
C1091      C1092   1.399       .  A
C1091      C1096   1.387       .  A
C1092      C1093   1.412       .  A
C1093      C1094   1.412       .  A
C1093      C1100   1.503       .  S
C1094      H1099   1.084       .  S
C1094      C1095   1.405       .  A
C1095      C1096   1.418       .  A
C1096      C1097   1.513       .  S
C1097      H1101   1.111       .  S
C1097      H1102   1.109       .  S
C1097      H1103   1.102       .  S
C1100      H1104   1.109       .  S
C1100      H1105   1.110       .  S
C1100      H1106   1.106       .  S
C1107      H1114   1.085   1_455  S
C1107      C1108   1.409       .  A
C1107      C1112   1.403       .  A
C1108      C1109   1.408       .  A
C1109      C1110   1.395       .  A
C1109      C1116   1.495       .  S
C1110      H1115   1.085       .  S
C1110      C1111   1.404       .  A
C1111      C1112   1.416       .  A
C1112      C1113   1.508       .  S
C1113      H1117   1.110       .  S
C1113      H1118   1.108       .  S
C1113      H1119   1.111   1_455  S
C1116      H1120   1.110       .  S
C1116      H1121   1.109       .  S
C1116      H1122   1.108       .  S
C1123      N1141   1.353       .  A
C1123      C1160   1.466       .  S
C1123      C1308   1.490       .  S
N1124      N1141   1.320       .  A
N1124      N1146   1.318       .  A
N1124     Co1722   2.098   1_554  S
C1125      N1150   1.368       .  A
C1125      C1163   1.483       .  S
C1125      H1170   1.075       .  S
H1126      C1167   1.081       .  S
C1127      N1151   1.332       .  A
C1127      C1131   1.469       .  S
C1127      H1156   1.082       .  S
Co1128     N1707   2.095       .  S
Co1128     N1697   2.065       .  S
Co1128     N1168   2.099       .  S
Co1128     N1144   2.077       .  S
Co1128    Cl1733   2.446       .  S
N1129      C1167   1.360       .  A
N1129      N1136   1.318       .  A
N1129     Co1130   2.113   1_554  S
Co1130     N1133   2.114   1_556  S
Co1130     N1711   2.138       .  S
Co1130     N1698   2.094       .  S
Co1130    Cl1172   2.487       .  S
C1131      N1169   1.361       .  A
C1131      C1299   1.509       .  S
N1132      N1139   1.319       .  A
N1132      N1162   1.335       .  A
N1132     Co1165   2.114   1_554  S
N1133      N1151   1.323       .  A
N1133      N1169   1.339       .  A
N1134      C1163   1.348       .  A
N1134      N1144   1.309       .  A
H1135      C1160   1.081       .  S
N1136      N1157   1.312       .  A
N1136     Co1689   2.070   1_554  S
N1137      N1155   1.317       .  A
N1137      N1142   1.326       .  A
N1137     Co1691   2.088       .  S
C1138      N1142   1.355       .  A
C1138      C1166   1.472       .  S
C1138      C1330   1.472       .  S
N1139      C1154   1.337       .  A
N1139     Co1722   2.093   1_554  S
C1140      N1168   1.348       .  A
C1140      C1143   1.471       .  S
C1140      H1174   1.080       .  S
C1143      N1164   1.356       .  A
C1143      C1317   1.484       .  S
N1144      N1150   1.318       .  A
N1145      C1171   1.338       .  A
N1145      N1147   1.317       .  A
N1145     Co1161   2.089       .  S
N1146      C1160   1.352       .  A
N1146     Co1689   2.088   1_554  S
N1147      N1175   1.332       .  A
N1147     Co1726   2.115       .  S
H1148      C1171   1.082       .  S
H1149      C1166   1.082       .  S
N1150     Co1691   2.134       .  S
N1151     Co1165   2.113   1_554  S
N1152      N1164   1.323       .  A
N1152      N1168   1.315       .  A
N1152     Co1161   2.093       .  S
C1153      N1157   1.346       .  A
C1153      C1167   1.475       .  S
C1153      C1185   1.494       .  S
C1154      C1173   1.464       .  S
C1154      H1158   1.082       .  S
N1155      C1166   1.333       .  A
N1155     Co1726   2.084       .  S
C1159      N1175   1.361       .  A
C1159      C1171   1.469       .  S
C1159      C1198   1.489       .  S
Co1161     N1685   2.109       .  S
Co1161     N1700   2.104       .  S
Co1161    Cl1733   2.442       .  S
N1162      C1173   1.361       .  A
C1163      C1207   1.514       .  S
Co1165     N1708   2.114       .  S
Co1165     N1716   2.081       .  S
Co1165    Cl1172   2.449       .  S
Cl1172    Co1689   2.455       .  S
Cl1172    Co1722   2.431       .  S
C1173      C1176   1.496       .  S
C1176      C1177   1.410       .  A
C1176      C1181   1.423       .  A
C1177      H1182   1.084       .  S
C1177      C1178   1.398       .  A
C1178      C1672   1.475       .  S
C1178      C1179   1.384       .  A
C1179      H1183   1.085       .  S
C1179      C1180   1.397       .  A
C1180      C1276   1.482       .  S
C1180      C1181   1.422       .  A
C1181      H1184   1.083       .  S
C1185      C1186   1.409       .  A
C1185      C1190   1.424       .  A
C1186      H1191   1.084       .  S
C1186      C1187   1.384       .  A
C1187      C1656   1.480       .  S
C1187      C1188   1.388       .  A
C1188      H1192   1.083       .  S
C1188      C1189   1.412       .  A
C1189      C1286   1.493       .  S
C1189      C1190   1.425       .  A
C1190      H1193   1.082       .  S
C1194      C1296   1.479       .  S
C1194      C1195   1.391       .  A
C1194      C1199   1.423       .  A
C1195      H1200   1.087       .  S
C1195      C1196   1.382       .  A
C1196      C1640   1.457       .  S
C1196      C1197   1.389       .  A
C1197      H1201   1.085       .  S
C1197      C1198   1.404       .  A
C1198      C1199   1.425       .  A
C1199      H1202   1.083       .  S
C1203      C1282   1.520       .  S
C1203      C1204   1.418       .  A
C1203      C1208   1.441       .  A
C1204      H1209   1.079       .  S
C1204      C1205   1.397       .  A
C1205      C1621   1.489       .  S
C1205      C1206   1.388       .  A
C1206      H1210   1.086       .  S
C1206      C1207   1.407       .  A
C1207      C1208   1.437       .  A
C1208      H1211   1.082       .  S
N1212      C1217   1.350       .  A
N1212      C3460   1.356       .  A
N1212      H1244   1.039       .  S
N1213      C1781   1.342       .  A
N1213      C1221   1.343   1_556  A
N1214      C1219   1.353       .  A
N1214      C3462   1.358       .  A
N1214      H1245   1.039       .  S
N1215      C1783   1.354   1_554  A
N1215      C1223   1.353       .  A
C1216      N3456   1.349       .  A
C1216      C1224   1.378       .  A
C1216      C1232   1.392   1_655  A
C1217      C1233   1.424       .  A
C1217      C1225   1.393       .  A
C1218      N3458   1.357   1_455  A
C1218      C1226   1.381   1_455  A
C1218      C1235   1.408       .  A
C1219      C1234   1.425       .  A
C1219      C1227   1.394       .  A
C1220      N1774   1.339       .  A
C1220      C1232   1.389       .  A
C1220      C1228   1.366       .  A
C1221      C1235   1.397       .  A
C1221      C1229   1.388       .  A
C1222      N1776   1.351       .  A
C1222      C1230   1.384       .  A
C1222      C1233   1.412       .  A
C1223      C1231   1.386       .  A
C1223      C1234   1.415       .  A
C1224      H1236   1.083       .  S
C1224      C3469   1.359       .  A
C1225      H1237   1.077       .  S
C1225      C3468   1.359       .  A
C1226      H1238   1.083   1_655  S
C1226      C3471   1.368       .  A
C1227      H1239   1.082       .  S
C1227      C3470   1.368       .  A
C1228      H1240   1.071       .  S
C1228      C1790   1.360       .  A
C1229      H1241   1.079       .  S
C1229      C1789   1.367   1_554  A
C1230      H1242   1.083       .  S
C1230      C1792   1.377       .  A
C1231      H1243   1.083       .  S
C1231      C1791   1.375   1_554  A
C1232      C1637   1.470       .  S
C1233      C1624   1.489       .  S
C1234      C1653   1.487       .  S
C1235      C1669   1.491       .  S
C1246      N1264   1.353       .  A
C1246      C1283   1.484       .  S
C1246      C1387   1.507       .  S
N1247      N1264   1.322       .  A
N1247      N1269   1.315       .  A
N1247     Co3528   2.081       .  S
C1248      N1273   1.356       .  A
C1248      C1286   1.472       .  S
C1248      H1293   1.081       .  S
H1249      C1290   1.075       .  S
C1250      N1274   1.331       .  A
C1250      C1254   1.465       .  S
C1250      H1279   1.079       .  S
Co1251     N3513   2.134       .  S
Co1251     N3503   2.095       .  S
Co1251     N1291   2.088       .  S
Co1251     N1267   2.100       .  S
Co1251    Cl1295   2.457       .  S
N1252      C1290   1.348       .  A
N1252      N1259   1.321       .  A
N1252     Co3497   2.125       .  S
Co1253     N3496   2.128       .  S
Co1253     N3500   2.112       .  S
Co1253     N1273   2.100       .  S
Co1253     N1260   2.143       .  S
Co1253    Cl1295   2.493       .  S
C1254      N1292   1.360       .  A
C1254      C1369   1.486       .  S
N1255      N1262   1.314       .  A
N1255      N1285   1.328       .  A
N1255     Co3532   2.093       .  S
N1256      N1274   1.318       .  A
N1256      N1292   1.332       .  A
N1256     Co3497   2.108       .  S
N1257      C1286   1.348       .  A
N1257      N1267   1.317       .  A
H1258      C1283   1.082       .  S
N1259      N1280   1.320       .  A
N1259     Co3495   2.086       .  S
N1260      N1278   1.321       .  A
N1260      N1265   1.346       .  A
C1261      N1265   1.369       .  A
C1261      C1289   1.466       .  S
C1261      C1400   1.526       .  S
N1262      C1277   1.341       .  A
N1262     Co3528   2.094       .  S
C1263      N1291   1.346       .  A
C1263      C1266   1.461       .  S
C1263      H1297   1.081       .  S
C1266      N1287   1.358       .  A
C1266      C1382   1.482       .  S
N1267      N1273   1.322       .  A
N1268      C1294   1.336       .  A
N1268      N1270   1.319       .  A
N1268     Co1284   2.103       .  S
N1269      C1283   1.359       .  A
N1269     Co3495   2.125       .  S
N1270      N1298   1.342       .  A
N1270     Co1288   2.130       .  S
H1271      C1294   1.080       .  S
H1272      C1289   1.082       .  S
N1274     Co3532   2.086       .  S
N1275      N1287   1.326       .  A
N1275      N1291   1.319       .  A
N1275     Co1284   2.113       .  S
C1276      N1280   1.355       .  A
C1276      C1290   1.473       .  S
C1277      C1296   1.476       .  S
C1277      H1281   1.082       .  S
N1278      C1289   1.327       .  A
N1278     Co1288   2.092       .  S
C1282      N1298   1.366       .  A
C1282      C1294   1.470       .  S
Co1284     N3491   2.093       .  S
Co1284     N3506   2.084       .  S
Co1284    Cl1295   2.439       .  S
N1285      C1296   1.356       .  A
Co1288     N3499   2.101       .  S
Co1288     N3518   2.086       .  S
Co1288    Cl1295   2.450       .  S
C1299      C1300   1.410       .  A
C1299      C1304   1.438       .  A
C1300      H1305   1.082       .  S
C1300      C1301   1.385       .  A
C1301      C1608   1.480       .  S
C1301      C1302   1.383       .  A
C1302      H1306   1.085       .  S
C1302      C1303   1.406       .  A
C1303      C1469   1.505       .  S
C1303      C1304   1.438       .  A
C1304      H1307   1.082       .  S
C1308      C1309   1.411       .  A
C1308      C1313   1.431       .  A
C1309      H1314   1.084       .  S
C1309      C1310   1.390       .  A
C1310      C1592   1.480       .  S
C1310      C1311   1.384       .  A
C1311      H1315   1.085       .  S
C1311      C1312   1.406       .  A
C1312      C1479   1.498       .  S
C1312      C1313   1.426       .  A
C1313      H1316   1.082       .  S
C1317      C1318   1.398       .  A
C1317      C1322   1.418       .  A
C1318      H1323   1.086       .  S
C1318      C1319   1.390       .  A
C1319      C1576   1.477       .  S
C1319      C1320   1.405       .  A
C1320      H1324   1.084       .  S
C1320      C1321   1.413       .  A
C1321      C1475   1.497       .  S
C1321      C1322   1.420       .  A
C1322      H1325   1.083       .  S
C1326      C1489   1.482       .  S
C1326      C1327   1.411       .  A
C1326      C1331   1.413       .  A
C1327      H1332   1.084       .  S
C1327      C1328   1.404       .  A
C1328      C1560   1.478       .  S
C1328      C1329   1.386       .  A
C1329      H1333   1.086       .  S
C1329      C1330   1.398       .  A
C1330      C1331   1.409       .  A
C1331      H1334   1.083       .  S
N1335      C1901   1.346       .  A
N1335      C1339   1.363       .  A
N1335      H1367   1.038       .  S
N1336      C1344   1.345       .  A
N1337      C1903   1.357       .  A
N1337      C1341   1.357       .  A
N1337      H1368   1.041       .  S
N1338      C1346   1.340       .  A
C1339      C1347   1.380       .  A
C1339      C1355   1.417       .  A
C1340      N1896   1.343       .  A
C1340      C1356   1.413       .  A
C1340      C1348   1.393       .  A
C1341      C1349   1.390       .  A
C1341      C1358   1.419       .  A
C1342      N1898   1.358       .  A
C1342      C1357   1.412       .  A
C1342      C1350   1.381       .  A
C1343      C1355   1.415       .  A
C1343      C1351   1.384       .  A
C1344      C1358   1.415       .  A
C1344      C1352   1.390       .  A
C1345      C1353   1.383       .  A
C1345      C1356   1.399       .  A
C1346      C1354   1.392       .  A
C1346      C1357   1.407       .  A
C1347      H1359   1.083       .  S
C1347      C1909   1.365       .  A
C1348      H1360   1.072       .  S
C1348      C1908   1.366       .  A
C1349      H1361   1.083       .  S
C1349      C1911   1.375       .  A
C1350      H1362   1.083       .  S
C1350      C1910   1.376       .  A
C1351      H1363   1.081       .  S
C1352      H1364   1.083       .  S
C1353      H1365   1.081       .  S
C1354      H1366   1.077       .  S
C1355      C1589   1.481       .  S
C1356      C1573   1.495       .  S
C1357      C1557   1.484       .  S
C1358      C1605   1.480       .  S
C1369      C1370   1.398       .  A
C1369      C1374   1.422       .  A
C1370      H1375   1.086       .  S
C1370      C1371   1.384       .  A
C1371      C1541   1.475       .  S
C1371      C1372   1.400       .  A
C1372      H1376   1.084       .  S
C1372      C1373   1.411       .  A
C1373      C1439   1.500       .  S
C1373      C1374   1.424       .  A
C1374      H1377   1.083       .  S
C1378      C1454   1.476       .  S
C1378      C1379   1.395       .  A
C1378      C1383   1.417       .  A
C1379      H1384   1.085       .  S
C1379      C1380   1.385       .  A
C1380      C1525   1.475       .  S
C1380      C1381   1.398       .  A
C1381      H1385   1.081       .  S
C1381      C1382   1.399       .  A
C1382      C1383   1.420       .  A
C1383      H1386   1.083       .  S
C1387      C1388   1.430       .  A
C1387      C1392   1.409       .  A
C1388      H1393   1.082       .  S
C1388      C1389   1.431       .  A
C1389      C1459   1.498       .  S
C1389      C1390   1.403       .  A
C1390      H1394   1.085       .  S
C1390      C1391   1.388       .  A
C1391      C1512   1.478       .  S
C1391      C1392   1.392       .  A
C1392      H1395   1.084       .  S
C1396      C1447   1.521       .  S
C1396      C1397   1.409       .  A
C1396      C1401   1.449       .  A
C1397      H1402   1.081       .  S
C1397      C1398   1.381       .  A
C1398      C1493   1.486       .  S
C1398      C1399   1.383       .  A
C1399      H1403   1.082       .  S
C1399      C1400   1.412       .  A
C1400      C1401   1.447       .  A
C1401      H1404   1.082       .  S
N1405      C1410   1.353       .  A
N1405      H1437   1.042       .  S
N1406      C1413   1.339       .  A
N1406      C3658   1.341       .  A
N1407      C1412   1.356       .  A
N1407      H1438   1.040       .  S
N1408      C1415   1.354       .  A
N1408      C3660   1.351       .  A
C1409      C1417   1.383       .  A
C1409      C1425   1.405       .  A
C1410      C1426   1.421       .  A
C1410      C1418   1.391       .  A
C1411      C1419   1.368       .  A
C1411      C1428   1.402       .  A
C1412      C1427   1.417       .  A
C1412      C1420   1.382       .  A
C1413      C1425   1.391       .  A
C1413      C1421   1.376       .  A
C1414      N3650   1.333       .  A
C1414      C1428   1.420       .  A
C1414      C1422   1.399       .  A
C1415      C1423   1.378       .  A
C1415      C1426   1.408       .  A
C1416      N3652   1.350       .  A
C1416      C1424   1.394       .  A
C1416      C1427   1.423   1_655  A
C1417      H1429   1.082       .  S
C1418      H1430   1.082       .  S
C1419      H1431   1.063       .  S
C1420      H1432   1.076       .  S
C1421      H1433   1.082       .  S
C1421      C3666   1.381       .  A
C1422      H1434   1.079       .  S
C1422      C3665   1.381   1_455  A
C1423      H1435   1.083       .  S
C1423      C3668   1.375       .  A
C1424      H1436   1.072   1_655  S
C1424      C3667   1.376       .  A
C1425      C1528   1.490       .  S
C1426      C1496   1.485       .  S
C1427      C1544   1.485       .  S
C1428      C1509   1.510       .  S
C1439      N1457   1.355       .  A
C1439      C1476   1.472       .  S
N1440      N1457   1.326       .  A
N1440      N1462   1.319       .  A
C1441      N1466   1.363       .  A
C1441      C1479   1.479       .  S
C1441      H1486   1.081       .  S
H1442      C1483   1.081       .  S
C1443      N1467   1.334       .  A
C1443      C1447   1.475       .  S
C1443      H1472   1.081       .  S
Co1444     N1484   2.131       .  S
Co1444     N1460   2.068       .  S
Co1444    Cl1488   2.469       .  S
N1445      C1483   1.361       .  A
N1445      N1452   1.321       .  A
Co1446     N1466   2.124       .  S
Co1446     N1453   2.098       .  S
Co1446    Cl1488   2.472       .  S
C1447      N1485   1.363       .  A
N1448      N1455   1.323       .  A
N1448      N1478   1.330       .  A
N1448     Co1481   2.116   1_565  S
N1449      N1467   1.322       .  A
N1449      N1485   1.342       .  A
N1450      C1479   1.346       .  A
N1450      N1460   1.310       .  A
H1451      C1476   1.082       .  S
N1452      N1473   1.318       .  A
N1453      N1471   1.318       .  A
N1453      N1458   1.326       .  A
C1454      N1458   1.355       .  A
C1454      C1482   1.478       .  S
N1455      C1470   1.339       .  A
C1456      N1484   1.356       .  A
C1456      C1459   1.480       .  S
C1456      H1490   1.079       .  S
C1459      N1480   1.354       .  A
N1460      N1466   1.319       .  A
N1461      C1487   1.343       .  A
N1461      N1463   1.318       .  A
N1461     Co1477   2.097       .  S
N1462      C1476   1.353       .  A
N1463      N1491   1.333       .  A
H1464      C1487   1.082       .  S
H1465      C1482   1.082       .  S
N1467     Co1481   2.121   1_565  S
N1468      N1480   1.321       .  A
N1468      N1484   1.319       .  A
N1468     Co1477   2.089       .  S
C1469      N1473   1.353       .  A
C1469      C1483   1.475       .  S
C1470      C1489   1.460       .  S
C1470      H1474   1.082       .  S
N1471      C1482   1.340       .  A
C1475      N1491   1.358       .  A
C1475      C1487   1.466       .  S
Co1477    Cl1488   2.436       .  S
N1478      C1489   1.356       .  A
C1492      H1499   1.084       .  S
C1492      C1493   1.407       .  A
C1492      C1497   1.413       .  A
C1493      C1494   1.422       .  A
C1494      C1495   1.386       .  A
C1494      C1501   1.510       .  S
C1495      H1500   1.078       .  S
C1495      C1496   1.393       .  A
C1496      C1497   1.413       .  A
C1497      C1498   1.504       .  S
C1498      H1502   1.103       .  S
C1498      H1503   1.110       .  S
C1498      H1504   1.108       .  S
C1501      H1505   1.106       .  S
C1501      H1506   1.100       .  S
C1501      H1507   1.106       .  S
C1508      H1515   1.071       .  S
C1508      C1509   1.419       .  A
C1508      C1513   1.401       .  A
C1509      C1510   1.416       .  A
C1510      C1511   1.401       .  A
C1510      C1517   1.505       .  S
C1511      H1516   1.085       .  S
C1511      C1512   1.402       .  A
C1512      C1513   1.402       .  A
C1513      C1514   1.507       .  S
C1514      H1518   1.108       .  S
C1514      H1519   1.110       .  S
C1514      H1520   1.108       .  S
C1517      H1521   1.111       .  S
C1517      H1522   1.104       .  S
C1517      H1523   1.109       .  S
C1524      H1531   1.085       .  S
C1524      C1525   1.399       .  A
C1524      C1529   1.385       .  A
C1525      C1526   1.415       .  A
C1526      C1527   1.403       .  A
C1526      C1533   1.507       .  S
C1527      H1532   1.084       .  S
C1527      C1528   1.408       .  A
C1528      C1529   1.415       .  A
C1529      C1530   1.499       .  S
C1530      H1534   1.107       .  S
C1530      H1535   1.110       .  S
C1530      H1536   1.102       .  S
C1533      H1537   1.109       .  S
C1533      H1538   1.111       .  S
C1533      H1539   1.111       .  S
C1540      H1547   1.085       .  S
C1540      C1541   1.400       .  A
C1540      C1545   1.403       .  A
C1541      C1542   1.414       .  A
C1542      C1543   1.398       .  A
C1542      C1549   1.508       .  S
C1543      H1548   1.084       .  S
C1543      C1544   1.398       .  A
C1544      C1545   1.425       .  A
C1545      C1546   1.510   1_455  S
C1546      H1550   1.110   1_655  S
C1546      H1551   1.106       .  S
C1546      H1552   1.105       .  S
C1549      H1553   1.109       .  S
C1549      H1554   1.107       .  S
C1549      H1555   1.111       .  S
C1556      H1563   1.085       .  S
C1556      C1557   1.409       .  A
C1556      C1561   1.402       .  A
C1557      C1558   1.410       .  A
C1558      C1559   1.402       .  A
C1558      C1565   1.504       .  S
C1559      H1564   1.085       .  S
C1559      C1560   1.407       .  A
C1560      C1561   1.411       .  A
C1561      C1562   1.508       .  S
C1562      H1566   1.110       .  S
C1562      H1567   1.110       .  S
C1562      H1568   1.108       .  S
C1565      H1569   1.111       .  S
C1565      H1570   1.110       .  S
C1565      H1571   1.110       .  S
C1572      H1579   1.084       .  S
C1572      C1573   1.412       .  A
C1572      C1577   1.411       .  A
C1573      C1574   1.407       .  A
C1574      C1575   1.395       .  A
C1574      C1581   1.485       .  S
C1575      H1580   1.085       .  S
C1575      C1576   1.396       .  A
C1576      C1577   1.411       .  A
C1577      C1578   1.503       .  S
C1578      H1582   1.111       .  S
C1578      H1583   1.110       .  S
C1578      H1584   1.110       .  S
C1581      H1585   1.109       .  S
C1581      H1586   1.111       .  S
C1581      H1587   1.106       .  S
C1588      H1595   1.085       .  S
C1588      C1589   1.393       .  A
C1588      C1593   1.392       .  A
C1589      C1590   1.410       .  A
C1590      C1591   1.409       .  A
C1590      C1597   1.507       .  S
C1591      H1596   1.083       .  S
C1591      C1592   1.405       .  A
C1592      C1593   1.422       .  A
C1593      C1594   1.511       .  S
C1594      H1598   1.110       .  S
C1594      H1599   1.104       .  S
C1594      H1600   1.109       .  S
C1597      H1601   1.108       .  S
C1597      H1602   1.108       .  S
C1597      H1603   1.110       .  S
C1604      H1611   1.086       .  S
C1604      C1605   1.391       .  A
C1604      C1609   1.382       .  A
C1605      C1606   1.405       .  A
C1606      C1607   1.411       .  A
C1606      C1613   1.495       .  S
C1607      H1612   1.084       .  S
C1607      C1608   1.406       .  A
C1608      C1609   1.425       .  A
C1609      C1610   1.510       .  S
C1610      H1614   1.111       .  S
C1610      H1615   1.104       .  S
C1610      H1616   1.101       .  S
C1613      H1617   1.109       .  S
C1613      H1618   1.108       .  S
C1613      H1619   1.110       .  S
C1620      H1627   1.074       .  S
C1620      C1621   1.404       .  A
C1620      C1625   1.389       .  A
C1621      C1622   1.410       .  A
C1622      C1623   1.415       .  A
C1622      C1629   1.504       .  S
C1623      H1628   1.083       .  S
C1623      C1624   1.410       .  A
C1624      C1625   1.407       .  A
C1625      C1626   1.511       .  S
C1626      H1630   1.111       .  S
C1626      H1631   1.109       .  S
C1626      H1632   1.110       .  S
C1629      H1633   1.110       .  S
C1629      H1634   1.110       .  S
C1629      H1635   1.111       .  S
C1636      H1643   1.082       .  S
C1636      C1637   1.404       .  A
C1636      C1641   1.396       .  A
C1637      C1638   1.403       .  A
C1638      C1639   1.394       .  A
C1638      C1645   1.505       .  S
C1639      H1644   1.085       .  S
C1639      C1640   1.405       .  A
C1640      C1641   1.402       .  A
C1641      C1642   1.505       .  S
C1642      H1646   1.108       .  S
C1642      H1647   1.111       .  S
C1642      H1648   1.110       .  S
C1645      H1649   1.110       .  S
C1645      H1650   1.108       .  S
C1645      H1651   1.111       .  S
C1652      H1659   1.085       .  S
C1652      C1653   1.396       .  A
C1652      C1657   1.384       .  A
C1653      C1654   1.413       .  A
C1654      C1655   1.413       .  A
C1654      C1661   1.502       .  S
C1655      H1660   1.084       .  S
C1655      C1656   1.408       .  A
C1656      C1657   1.420       .  A
C1657      C1658   1.512       .  S
C1658      H1662   1.111       .  S
C1658      H1663   1.107       .  S
C1658      H1664   1.102       .  S
C1661      H1665   1.109       .  S
C1661      H1666   1.110       .  S
C1661      H1667   1.110       .  S
C1668      H1675   1.085       .  S
C1668      C1669   1.410       .  A
C1668      C1673   1.402       .  A
C1669      C1670   1.406       .  A
C1670      C1671   1.396       .  A
C1670      C1677   1.494       .  S
C1671      H1676   1.085       .  S
C1671      C1672   1.403       .  A
C1672      C1673   1.410       .  A
C1673      C1674   1.505       .  S
C1674      H1678   1.111   1_455  S
C1674      H1679   1.106       .  S
C1674      H1680   1.108       .  S
C1677      H1681   1.110       .  S
C1677      H1682   1.108       .  S
C1677      H1683   1.109       .  S
C1684      N1702   1.357       .  A
C1684      C1721   1.465       .  S
C1684      C1869   1.495       .  S
N1685      N1702   1.324       .  A
N1685      N1707   1.320       .  A
C1686      N1711   1.366       .  A
C1686      C1724   1.481       .  S
C1686      H1731   1.076       .  S
H1687      C1728   1.081       .  S
C1688      N1712   1.336       .  A
C1688      C1692   1.474       .  S
C1688      H1717   1.082       .  S
Co1689     N1729   2.110       .  S
Co1689     N1705   2.078       .  S
N1690      C1728   1.360       .  A
N1690      N1697   1.318       .  A
N1690     Co1691   2.111       .  S
Co1691     N1694   2.116       .  S
Co1691    Cl1733   2.491       .  S
C1692      N1730   1.360       .  A
C1692      C1860   1.515       .  S
N1693      N1700   1.321       .  A
N1693      N1723   1.333       .  A
N1693     Co1726   2.107       .  S
N1694      N1712   1.324       .  A
N1694      N1730   1.339       .  A
N1695      C1724   1.349       .  A
N1695      N1705   1.312       .  A
H1696      C1721   1.081       .  S
N1697      N1718   1.311       .  A
N1698      N1716   1.318       .  A
N1698      N1703   1.327       .  A
C1699      N1703   1.356       .  A
C1699      C1727   1.469       .  S
C1699      C1891   1.474       .  S
N1700      C1715   1.341       .  A
C1701      N1729   1.351       .  A
C1701      C1704   1.476       .  S
C1701      H1735   1.082       .  S
C1704      N1725   1.351       .  A
C1704      C1878   1.482       .  S
N1705      N1711   1.320       .  A
N1706      C1732   1.341       .  A
N1706      N1708   1.315       .  A
N1706     Co1722   2.095       .  S
N1707      C1721   1.351       .  A
N1708      N1736   1.334       .  A
H1709      C1732   1.082       .  S
H1710      C1727   1.082       .  S
N1712     Co1726   2.123       .  S
N1713      N1725   1.320       .  A
N1713      N1729   1.317       .  A
N1713     Co1722   2.079       .  S
C1714      N1718   1.346       .  A
C1714      C1728   1.476       .  S
C1714      C1746   1.492       .  S
C1715      C1734   1.466       .  S
C1715      H1719   1.082       .  S
N1716      C1727   1.331       .  A
C1720      N1736   1.362       .  A
C1720      C1732   1.471       .  S
C1720      C1759   1.498       .  S
N1723      C1734   1.357       .  A
C1724      C1768   1.509       .  S
Co1726    Cl1733   2.446       .  S
C1734      C1737   1.494       .  S
C1737      C1738   1.409       .  A
C1737      C1742   1.420       .  A
C1738      H1743   1.084       .  S
C1738      C1739   1.403       .  A
C1739      C2233   1.480       .  S
C1739      C1740   1.388       .  A
C1740      H1744   1.086       .  S
C1740      C1741   1.398       .  A
C1741      C1837   1.481       .  S
C1741      C1742   1.419       .  A
C1742      H1745   1.083       .  S
C1746      C1747   1.408       .  A
C1746      C1751   1.424       .  A
C1747      H1752   1.085       .  S
C1747      C1748   1.383       .  A
C1748      C2217   1.480       .  S
C1748      C1749   1.390       .  A
C1749      H1753   1.083       .  S
C1749      C1750   1.412       .  A
C1750      C1847   1.493       .  S
C1750      C1751   1.426       .  A
C1751      H1754   1.083       .  S
C1755      C1857   1.488       .  S
C1755      C1756   1.393       .  A
C1755      C1760   1.428       .  A
C1756      H1761   1.087       .  S
C1756      C1757   1.387       .  A
C1757      C2201   1.461       .  S
C1757      C1758   1.394       .  A
C1758      H1762   1.085       .  S
C1758      C1759   1.404       .  A
C1759      C1760   1.428       .  A
C1760      H1763   1.083       .  S
C1764      C1843   1.516       .  S
C1764      C1765   1.418       .  A
C1764      C1769   1.437       .  A
C1765      H1770   1.079       .  S
C1765      C1766   1.397       .  A
C1766      C2182   1.487       .  S
C1766      C1767   1.388       .  A
C1767      H1771   1.085       .  S
C1767      C1768   1.407       .  A
C1768      C1769   1.434       .  A
C1769      H1772   1.082       .  S
N1773      C1778   1.348       .  A
N1773      C4021   1.355       .  A
N1773      H1805   1.037       .  S
N1774      C1782   1.344       .  A
N1775      C1780   1.350       .  A
N1775      C4023   1.357       .  A
N1775      H1806   1.040       .  S
N1776      C1784   1.351       .  A
C1777      N4017   1.355       .  A
C1777      C1785   1.380       .  A
C1777      C1793   1.408   1_655  A
C1778      C1794   1.425       .  A
C1778      C1786   1.393       .  A
C1779      N4019   1.360       .  A
C1779      C1787   1.380       .  A
C1779      C1796   1.410   1_655  A
C1780      C1795   1.421       .  A
C1780      C1788   1.394       .  A
C1781      C1793   1.397       .  A
C1781      C1789   1.381       .  A
C1782      C1796   1.397       .  A
C1782      C1790   1.387       .  A
C1783      C1791   1.385       .  A
C1783      C1794   1.419       .  A
C1784      C1792   1.386       .  A
C1784      C1795   1.410       .  A
C1785      H1797   1.083       .  S
C1785      C4030   1.364       .  A
C1786      H1798   1.078       .  S
C1786      C4029   1.367       .  A
C1787      H1799   1.083       .  S
C1787      C4032   1.370       .  A
C1788      H1800   1.082       .  S
C1788      C4031   1.370       .  A
C1789      H1801   1.081       .  S
C1790      H1802   1.075       .  S
C1791      H1803   1.082       .  S
C1792      H1804   1.083       .  S
C1793      C2198   1.482       .  S
C1794      C2185   1.487       .  S
C1795      C2214   1.485       .  S
C1796      C2230   1.499       .  S
C1807      N1825   1.351       .  A
C1807      C1844   1.480       .  S
C1807      C1948   1.496       .  S
N1808      N1825   1.320       .  A
N1808      N1830   1.317       .  A
N1808     Co4089   2.079       .  S
C1809      N1834   1.356       .  A
C1809      C1847   1.472       .  S
C1809      H1854   1.081       .  S
H1810      C1851   1.077       .  S
C1811      N1835   1.332       .  A
C1811      C1815   1.464       .  S
C1811      H1840   1.081       .  S
Co1812     N4074   2.124       .  S
Co1812     N4064   2.092       .  S
Co1812     N1852   2.081       .  S
Co1812     N1828   2.107       .  S
Co1812    Cl1856   2.441       .  S
N1813      C1851   1.348       .  A
N1813      N1820   1.321       .  A
N1813     Co4058   2.118       .  S
Co1814     N4057   2.108       .  S
Co1814     N4061   2.105       .  S
Co1814     N1834   2.095       .  S
Co1814     N1821   2.123       .  S
Co1814    Cl1856   2.505       .  S
C1815      N1853   1.362       .  A
C1815      C1930   1.486       .  S
N1816      N1823   1.314       .  A
N1816      N1846   1.329       .  A
N1816     Co4093   2.095       .  S
N1817      N1835   1.319       .  A
N1817      N1853   1.333       .  A
N1817     Co4058   2.122       .  S
N1818      C1847   1.349       .  A
N1818      N1828   1.318       .  A
H1819      C1844   1.082       .  S
N1820      N1841   1.321       .  A
N1820     Co4056   2.094       .  S
N1821      N1839   1.322       .  A
N1821      N1826   1.344       .  A
C1822      N1826   1.364       .  A
C1822      C1850   1.467       .  S
C1822      C1961   1.518       .  S
N1823      C1838   1.346       .  A
N1823     Co4089   2.106       .  S
C1824      N1852   1.347       .  A
C1824      C1827   1.459       .  S
C1824      H1858   1.081       .  S
C1827      N1848   1.360       .  A
C1827      C1943   1.487       .  S
N1828      N1834   1.321       .  A
N1829      C1855   1.336       .  A
N1829      N1831   1.319       .  A
N1829     Co1845   2.098       .  S
N1830      C1844   1.356       .  A
N1830     Co4056   2.119       .  S
N1831      N1859   1.340       .  A
N1831     Co1849   2.129       .  S
H1832      C1855   1.080       .  S
H1833      C1850   1.082       .  S
N1835     Co4093   2.083       .  S
N1836      N1848   1.326       .  A
N1836      N1852   1.320       .  A
N1836     Co1845   2.128       .  S
C1837      N1841   1.356       .  A
C1837      C1851   1.472       .  S
C1838      C1857   1.480       .  S
C1838      H1842   1.082       .  S
N1839      C1850   1.326       .  A
N1839     Co1849   2.097       .  S
C1843      N1859   1.365       .  A
C1843      C1855   1.469       .  S
Co1845     N4052   2.088       .  S
Co1845     N4067   2.109       .  S
Co1845    Cl1856   2.451       .  S
N1846      C1857   1.356       .  A
Co1849     N4060   2.107       .  S
Co1849     N4079   2.087       .  S
Co1849    Cl1856   2.438       .  S
C1860      C1861   1.408       .  A
C1860      C1865   1.444       .  A
C1861      H1866   1.081       .  S
C1861      C1862   1.384       .  A
C1862      C2169   1.479       .  S
C1862      C1863   1.382       .  A
C1863      H1867   1.085       .  S
C1863      C1864   1.406       .  A
C1864      C2030   1.512       .  S
C1864      C1865   1.443       .  A
C1865      H1868   1.082       .  S
C1869      C1870   1.410       .  A
C1869      C1874   1.434       .  A
C1870      H1875   1.084       .  S
C1870      C1871   1.391       .  A
C1871      C2153   1.479       .  S
C1871      C1872   1.387       .  A
C1872      H1876   1.086       .  S
C1872      C1873   1.404       .  A
C1873      C2040   1.503       .  S
C1873      C1874   1.429       .  A
C1874      H1877   1.083       .  S
C1878      C1879   1.404       .  A
C1878      C1883   1.416       .  A
C1879      H1884   1.085       .  S
C1879      C1880   1.392       .  A
C1880      C2137   1.489       .  S
C1880      C1881   1.406       .  A
C1881      H1885   1.084       .  S
C1881      C1882   1.414       .  A
C1882      C2036   1.498       .  S
C1882      C1883   1.417       .  A
C1883      H1886   1.082       .  S
C1887      C2050   1.482       .  S
C1887      C1888   1.412       .  A
C1887      C1892   1.412       .  A
C1888      H1893   1.083       .  S
C1888      C1889   1.400       .  A
C1889      C2121   1.479       .  S
C1889      C1890   1.387       .  A
C1890      H1894   1.086       .  S
C1890      C1891   1.403       .  A
C1891      C1892   1.409       .  A
C1892      H1895   1.084       .  S
N1896      C1900   1.362       .  A
N1896      H1928   1.038       .  S
N1897      C1905   1.345       .  A
N1898      C1902   1.357       .  A
N1898      H1929   1.041       .  S
N1899      C1907   1.340       .  A
C1900      C1908   1.378       .  A
C1900      C1916   1.414       .  A
C1901      C1917   1.418   1_554  A
C1901      C1909   1.393       .  A
C1902      C1910   1.390       .  A
C1902      C1919   1.419       .  A
C1903      C1918   1.410   1_554  A
C1903      C1911   1.381       .  A
C1904      C1916   1.413       .  A
C1904      C1912   1.384       .  A
C1905      C1919   1.414       .  A
C1905      C1913   1.390       .  A
C1906      C1914   1.384       .  A
C1906      C1917   1.404       .  A
C1907      C1915   1.391       .  A
C1907      C1918   1.407       .  A
C1908      H1920   1.083       .  S
C1909      H1921   1.077       .  S
C1910      H1922   1.082       .  S
C1911      H1923   1.082       .  S
C1912      H1924   1.082       .  S
C1913      H1925   1.083       .  S
C1914      H1926   1.081       .  S
C1915      H1927   1.081       .  S
C1916      C2150   1.479       .  S
C1917      C2134   1.500       .  S
C1918      C2118   1.487       .  S
C1919      C2166   1.480       .  S
C1930      C1931   1.396       .  A
C1930      C1935   1.420       .  A
C1931      H1936   1.086       .  S
C1931      C1932   1.387       .  A
C1932      C2102   1.487       .  S
C1932      C1933   1.407       .  A
C1933      H1937   1.083       .  S
C1933      C1934   1.418       .  A
C1934      C2000   1.503       .  S
C1934      C1935   1.424       .  A
C1935      H1938   1.083       .  S
C1939      C2015   1.486       .  S
C1939      C1940   1.394       .  A
C1939      C1944   1.422       .  A
C1940      H1945   1.085       .  S
C1940      C1941   1.387       .  A
C1941      C2086   1.477       .  S
C1941      C1942   1.392       .  A
C1942      H1946   1.080       .  S
C1942      C1943   1.401       .  A
C1943      C1944   1.426       .  A
C1944      H1947   1.083       .  S
C1948      C1949   1.421       .  A
C1948      C1953   1.411       .  A
C1949      H1954   1.082       .  S
C1949      C1950   1.418       .  A
C1950      C2020   1.503       .  S
C1950      C1951   1.407       .  A
C1951      H1955   1.079       .  S
C1951      C1952   1.412       .  A
C1952      C2073   1.523       .  S
C1952      C1953   1.401       .  A
C1953      H1956   1.075       .  S
C1957      C2008   1.519       .  S
C1957      C1958   1.410       .  A
C1957      C1962   1.446       .  A
C1958      H1963   1.079       .  S
C1958      C1959   1.381       .  A
C1959      C2054   1.480       .  S
C1959      C1960   1.380       .  A
C1960      H1964   1.083       .  S
C1960      C1961   1.406       .  A
C1961      C1962   1.445       .  A
C1962      H1965   1.082       .  S
N1966      C1971   1.354       .  A
N1966      H1998   1.044       .  S
N1967      C1974   1.351       .  A
N1967      C4219   1.348       .  A
N1968      C1973   1.341       .  A
N1968      H1999   1.043       .  S
N1969      C1976   1.348       .  A
N1969      C4221   1.346       .  A
C1970      C1978   1.383       .  A
C1970      C1986   1.407       .  A
C1971      C1987   1.424       .  A
C1971      C1979   1.393       .  A
C1972      C1980   1.375       .  A
C1972      C1989   1.403       .  A
C1973      C1988   1.401       .  A
C1973      C1981   1.385       .  A
C1974      C1986   1.402       .  A
C1974      C1982   1.374       .  A
C1975      N4211   1.347   1_455  A
C1975      C1989   1.417       .  A
C1975      C1983   1.396       .  A
C1976      C1984   1.377       .  A
C1976      C1987   1.403       .  A
C1977      N4213   1.352       .  A
C1977      C1985   1.395       .  A
C1977      C1988   1.424   1_655  A
C1978      H1990   1.082       .  S
C1979      H1991   1.082       .  S
C1980      H1992   1.073       .  S
C1981      H1993   1.080       .  S
C1982      H1994   1.082       .  S
C1982      C4227   1.372       .  A
C1983      H1995   1.080       .  S
C1983      C4226   1.372   1_455  A
C1984      H1996   1.082       .  S
C1984      C4229   1.377       .  A
C1985      H1997   1.077       .  S
C1985      C4228   1.369       .  A
C1986      C2089   1.488       .  S
C1987      C2057   1.484       .  S
C1988      C2105   1.501       .  S
C1989      C2070   1.525       .  S
C2000      N2018   1.354       .  A
C2000      C2037   1.475       .  S
N2001      N2018   1.327       .  A
N2001      N2023   1.319       .  A
C2002      N2027   1.362       .  A
C2002      C2040   1.477       .  S
C2002      H2047   1.077       .  S
H2003      C2044   1.081       .  S
C2004      N2028   1.332       .  A
C2004      C2008   1.474       .  S
C2004      H2033   1.081       .  S
Co2005     N2045   2.142       .  S
Co2005     N2021   2.073       .  S
Co2005    Cl2049   2.481       .  S
N2006      C2044   1.365       .  A
N2006      N2013   1.323       .  A
Co2007     N2027   2.139       .  S
Co2007     N2014   2.110       .  S
Co2007    Cl2049   2.467       .  S
C2008      N2046   1.363       .  A
N2009      N2016   1.323       .  A
N2009      N2039   1.331       .  A
N2009     Co2042   2.113   1_565  S
N2010      N2028   1.322       .  A
N2010      N2046   1.341       .  A
N2011      C2040   1.348       .  A
N2011      N2021   1.314       .  A
H2012      C2037   1.082       .  S
N2013      N2034   1.317       .  A
N2014      N2032   1.319       .  A
N2014      N2019   1.329       .  A
C2015      N2019   1.357       .  A
C2015      C2043   1.480       .  S
N2016      C2031   1.336       .  A
C2017      N2045   1.358       .  A
C2017      C2020   1.485       .  S
C2017      H2051   1.079       .  S
C2020      N2041   1.350       .  A
N2021      N2027   1.321       .  A
N2022      C2048   1.340       .  A
N2022      N2024   1.319       .  A
N2022     Co2038   2.086       .  S
N2023      C2037   1.354       .  A
N2024      N2052   1.335       .  A
H2025      C2048   1.082       .  S
H2026      C2043   1.082       .  S
N2028     Co2042   2.117   1_565  S
N2029      N2041   1.322       .  A
N2029      N2045   1.319       .  A
N2029     Co2038   2.080       .  S
C2030      N2034   1.354       .  A
C2030      C2044   1.481       .  S
C2031      C2050   1.458       .  S
C2031      H2035   1.082       .  S
N2032      C2043   1.341       .  A
C2036      N2052   1.361       .  A
C2036      C2048   1.462       .  S
Co2038    Cl2049   2.432       .  S
N2039      C2050   1.357       .  A
C2053      H2060   1.084       .  S
C2053      C2054   1.405       .  A
C2053      C2058   1.411       .  A
C2054      C2055   1.422       .  A
C2055      C2056   1.385       .  A
C2055      C2062   1.512       .  S
C2056      H2061   1.076       .  S
C2056      C2057   1.395       .  A
C2057      C2058   1.410       .  A
C2058      C2059   1.502       .  S
C2059      H2063   1.106       .  S
C2059      H2064   1.110       .  S
C2059      H2065   1.110       .  S
C2062      H2066   1.107       .  S
C2062      H2067   1.097       .  S
C2062      H2068   1.108       .  S
C2069      H2076   1.084       .  S
C2069      C2070   1.411       .  A
C2069      C2074   1.411       .  A
C2070      C2071   1.428       .  A
C2071      C2072   1.400       .  A
C2071      C2078   1.514       .  S
C2072      H2077   1.083       .  S
C2072      C2073   1.407       .  A
C2073      C2074   1.431       .  A
C2074      C2075   1.509       .  S
C2075      H2079   1.111       .  S
C2075      H2080   1.108       .  S
C2075      H2081   1.109       .  S
C2078      H2082   1.111       .  S
C2078      H2083   1.101       .  S
C2078      H2084   1.112       .  S
C2085      H2092   1.085       .  S
C2085      C2086   1.403       .  A
C2085      C2090   1.401       .  A
C2086      C2087   1.419       .  A
C2087      C2088   1.392       .  A
C2087      C2094   1.510       .  S
C2088      H2093   1.082       .  S
C2088      C2089   1.400       .  A
C2089      C2090   1.420       .  A
C2090      C2091   1.505       .  S
C2091      H2095   1.108       .  S
C2091      H2096   1.100       .  S
C2091      H2097   1.110       .  S
C2094      H2098   1.107       .  S
C2094      H2099   1.109       .  S
C2094      H2100   1.107       .  S
C2101      H2108   1.084       .  S
C2101      C2102   1.401       .  A
C2101      C2106   1.406       .  A
C2102      C2103   1.415       .  A
C2103      C2104   1.406       .  A
C2103      C2110   1.507       .  S
C2104      H2109   1.085       .  S
C2104      C2105   1.408       .  A
C2105      C2106   1.422       .  A
C2106      C2107   1.500   1_455  S
C2107      H2111   1.110       .  S
C2107      H2112   1.107       .  S
C2107      H2113   1.106       .  S
C2110      H2114   1.110       .  S
C2110      H2115   1.105       .  S
C2110      H2116   1.111       .  S
C2117      H2124   1.085   1_556  S
C2117      C2118   1.409       .  A
C2117      C2122   1.402       .  A
C2118      C2119   1.407       .  A
C2119      C2120   1.404       .  A
C2119      C2126   1.503       .  S
C2120      H2125   1.085       .  S
C2120      C2121   1.408       .  A
C2121      C2122   1.410       .  A
C2122      C2123   1.506       .  S
C2123      H2127   1.109       .  S
C2123      H2128   1.108       .  S
C2123      H2129   1.110   1_556  S
C2126      H2130   1.105       .  S
C2126      H2131   1.109       .  S
C2126      H2132   1.110       .  S
C2133      H2140   1.083   1_556  S
C2133      C2134   1.410       .  A
C2133      C2138   1.413       .  A
C2134      C2135   1.416       .  A
C2135      C2136   1.401       .  A
C2135      C2142   1.497       .  S
C2136      H2141   1.085       .  S
C2136      C2137   1.398       .  A
C2137      C2138   1.415       .  A
C2138      C2139   1.505       .  S
C2139      H2143   1.110   1_556  S
C2139      H2144   1.109       .  S
C2139      H2145   1.110       .  S
C2142      H2146   1.103       .  S
C2142      H2147   1.094       .  S
C2142      H2148   1.108       .  S
C2149      H2156   1.086       .  S
C2149      C2150   1.391       .  A
C2149      C2154   1.391       .  A
C2150      C2151   1.408       .  A
C2151      C2152   1.410       .  A
C2151      C2158   1.506       .  S
C2152      H2157   1.082       .  S
C2152      C2153   1.406       .  A
C2153      C2154   1.423       .  A
C2154      C2155   1.512       .  S
C2155      H2159   1.111       .  S
C2155      H2160   1.100       .  S
C2155      H2161   1.109       .  S
C2158      H2162   1.109       .  S
C2158      H2163   1.108       .  S
C2158      H2164   1.109       .  S
C2165      H2172   1.086       .  S
C2165      C2166   1.392       .  A
C2165      C2170   1.382       .  A
C2166      C2167   1.406       .  A
C2167      C2168   1.411       .  A
C2167      C2174   1.496       .  S
C2168      H2173   1.084       .  S
C2168      C2169   1.406       .  A
C2169      C2170   1.425       .  A
C2170      C2171   1.511       .  S
C2171      H2175   1.110       .  S
C2171      H2176   1.105       .  S
C2171      H2177   1.101       .  S
C2174      H2178   1.109       .  S
C2174      H2179   1.108       .  S
C2174      H2180   1.110       .  S
C2181      H2188   1.079       .  S
C2181      C2182   1.403       .  A
C2181      C2186   1.387       .  A
C2182      C2183   1.411       .  A
C2183      C2184   1.415       .  A
C2183      C2190   1.502       .  S
C2184      H2189   1.083       .  S
C2184      C2185   1.410       .  A
C2185      C2186   1.409       .  A
C2186      C2187   1.512       .  S
C2187      H2191   1.111       .  S
C2187      H2192   1.110       .  S
C2187      H2193   1.110       .  S
C2190      H2194   1.107       .  S
C2190      H2195   1.109       .  S
C2190      H2196   1.111       .  S
C2197      H2204   1.084       .  S
C2197      C2198   1.410       .  A
C2197      C2202   1.402       .  A
C2198      C2199   1.406       .  A
C2199      C2200   1.390       .  A
C2199      C2206   1.494       .  S
C2200      H2205   1.086       .  S
C2200      C2201   1.399       .  A
C2201      C2202   1.403       .  A
C2202      C2203   1.504       .  S
C2203      H2207   1.110       .  S
C2203      H2208   1.110       .  S
C2203      H2209   1.111       .  S
C2206      H2210   1.109       .  S
C2206      H2211   1.106       .  S
C2206      H2212   1.108       .  S
C2213      H2220   1.084       .  S
C2213      C2214   1.398       .  A
C2213      C2218   1.386       .  A
C2214      C2215   1.409       .  A
C2215      C2216   1.412       .  A
C2215      C2222   1.501       .  S
C2216      H2221   1.084       .  S
C2216      C2217   1.408       .  A
C2217      C2218   1.419       .  A
C2218      C2219   1.512       .  S
C2219      H2223   1.111       .  S
C2219      H2224   1.108       .  S
C2219      H2225   1.105       .  S
C2222      H2226   1.109       .  S
C2222      H2227   1.107       .  S
C2222      H2228   1.110       .  S
C2229      H2236   1.085   1_455  S
C2229      C2230   1.411       .  A
C2229      C2234   1.404       .  A
C2230      C2231   1.410       .  A
C2231      C2232   1.396       .  A
C2231      C2238   1.497       .  S
C2232      H2237   1.085       .  S
C2232      C2233   1.404       .  A
C2233      C2234   1.415       .  A
C2234      C2235   1.507       .  S
C2235      H2239   1.110   1_455  S
C2235      H2240   1.108       .  S
C2235      H2241   1.111   1_455  S
C2238      H2242   1.111       .  S
C2238      H2243   1.106       .  S
C2238      H2244   1.109       .  S
C2245      N2263   1.353       .  A
C2245      C2282   1.463       .  S
C2245      C2430   1.486       .  S
N2246      N2263   1.321       .  A
N2246      N2268   1.318       .  A
N2246     Co2844   2.098   1_554  S
C2247      N2272   1.372       .  A
C2247      C2285   1.490       .  S
C2247      H2292   1.080       .  S
H2248      C2289   1.081       .  S
C2249      N2273   1.334       .  A
C2249      C2253   1.472       .  S
C2249      H2278   1.082       .  S
Co2250     N2829   2.083       .  S
Co2250     N2819   2.085       .  S
Co2250     N2290   2.109       .  S
Co2250     N2266   2.069       .  S
Co2250    Cl2855   2.435       .  S
N2251      C2289   1.362       .  A
N2251      N2258   1.319       .  A
N2251     Co2252   2.125   1_554  S
Co2252     N2255   2.101   1_556  S
Co2252     N2833   2.122       .  S
Co2252     N2820   2.097       .  S
Co2252    Cl2294   2.485       .  S
C2253      N2291   1.357       .  A
C2253      C2421   1.505       .  S
N2254      N2261   1.320       .  A
N2254      N2284   1.334       .  A
N2254     Co2287   2.108   1_554  S
N2255      N2273   1.323       .  A
N2255      N2291   1.337       .  A
N2256      C2285   1.342       .  A
N2256      N2266   1.306       .  A
H2257      C2282   1.081       .  S
N2258      N2279   1.311       .  A
N2258     Co2811   2.063   1_554  S
N2259      N2277   1.317       .  A
N2259      N2264   1.325       .  A
N2259     Co2813   2.081       .  S
C2260      N2264   1.354       .  A
C2260      C2288   1.472       .  S
C2260      C2452   1.469       .  S
N2261      C2276   1.341       .  A
N2261     Co2844   2.107   1_554  S
C2262      N2290   1.348       .  A
C2262      C2265   1.471       .  S
C2262      H2296   1.073       .  S
C2265      N2286   1.356       .  A
C2265      C2439   1.484       .  S
N2266      N2272   1.317       .  A
N2267      C2293   1.337       .  A
N2267      N2269   1.314       .  A
N2267     Co2283   2.083       .  S
N2268      C2282   1.350       .  A
N2268     Co2811   2.082   1_554  S
N2269      N2297   1.331       .  A
N2269     Co2848   2.102       .  S
H2270      C2293   1.082       .  S
H2271      C2288   1.082       .  S
N2272     Co2813   2.135       .  S
N2273     Co2287   2.118   1_554  S
N2274      N2286   1.323       .  A
N2274      N2290   1.314       .  A
N2274     Co2283   2.083       .  S
C2275      N2279   1.343       .  A
C2275      C2289   1.481       .  S
C2275      C2307   1.496       .  S
C2276      C2295   1.468       .  S
C2276      H2280   1.082       .  S
N2277      C2288   1.333       .  A
N2277     Co2848   2.085       .  S
C2281      N2297   1.360       .  A
C2281      C2293   1.469       .  S
C2281      C2320   1.486       .  S
Co2283     N2807   2.099       .  S
Co2283     N2822   2.096       .  S
Co2283    Cl2855   2.436       .  S
N2284      C2295   1.359       .  A
C2285      C2329   1.515       .  S
Co2287     N2830   2.115       .  S
Co2287     N2838   2.074       .  S
Co2287    Cl2294   2.451       .  S
Cl2294    Co2811   2.454       .  S
Cl2294    Co2844   2.431       .  S
C2295      C2298   1.498       .  S
C2298      C2299   1.408       .  A
C2298      C2303   1.423       .  A
C2299      H2304   1.083       .  S
C2299      C2300   1.401       .  A
C2300      C2794   1.476       .  S
C2300      C2301   1.385       .  A
C2301      H2305   1.087       .  S
C2301      C2302   1.399       .  A
C2302      C2398   1.483       .  S
C2302      C2303   1.423       .  A
C2303      H2306   1.083       .  S
C2307      C2308   1.414       .  A
C2307      C2312   1.424       .  A
C2308      H2313   1.083       .  S
C2308      C2309   1.386       .  A
C2309      C2778   1.479       .  S
C2309      C2310   1.383       .  A
C2310      H2314   1.084       .  S
C2310      C2311   1.407       .  A
C2311      C2408   1.487       .  S
C2311      C2312   1.425       .  A
C2312      H2315   1.083       .  S
C2316      C2418   1.480       .  S
C2316      C2317   1.394       .  A
C2316      C2321   1.421       .  A
C2317      H2322   1.086       .  S
C2317      C2318   1.389       .  A
C2318      C2762   1.465       .  S
C2318      C2319   1.389       .  A
C2319      H2323   1.084       .  S
C2319      C2320   1.402       .  A
C2320      C2321   1.421       .  A
C2321      H2324   1.083       .  S
C2325      C2404   1.521       .  S
C2325      C2326   1.425       .  A
C2325      C2330   1.437       .  A
C2326      H2331   1.080       .  S
C2326      C2327   1.405       .  A
C2327      C2743   1.503       .  S
C2327      C2328   1.393       .  A
C2328      H2332   1.085       .  S
C2328      C2329   1.410       .  A
C2329      C2330   1.431       .  A
C2330      H2333   1.082       .  S
N2334      C2339   1.348       .  A
N2334      H2366   1.040       .  S
N2335      C2903   1.341   1_554  A
N2335      C2343   1.343       .  A
N2336      C2341   1.354       .  A
N2336      H2367   1.039       .  S
N2337      C2905   1.350   1_554  A
N2337      C2345   1.351       .  A
C2338      C2346   1.382       .  A
C2338      C2354   1.409       .  A
C2339      C2355   1.419       .  A
C2339      C2347   1.393       .  A
C2340      C2348   1.379       .  A
C2340      C2357   1.404       .  A
C2341      C2356   1.421       .  A
C2341      C2349   1.391       .  A
C2342      N2896   1.339       .  A
C2342      C2354   1.393       .  A
C2342      C2350   1.380       .  A
C2343      C2357   1.393       .  A
C2343      C2351   1.385       .  A
C2344      N2898   1.356       .  A
C2344      C2352   1.383       .  A
C2344      C2355   1.420       .  A
C2345      C2353   1.389       .  A
C2345      C2356   1.413       .  A
C2346      H2358   1.082       .  S
C2347      H2359   1.070       .  S
C2348      H2360   1.083       .  S
C2349      H2361   1.083       .  S
C2350      H2362   1.078       .  S
C2350      C2912   1.359       .  A
C2351      H2363   1.079       .  S
C2351      C2911   1.360   1_554  A
C2352      H2364   1.082       .  S
C2352      C2914   1.381       .  A
C2353      H2365   1.082       .  S
C2353      C2913   1.375       .  A
C2354      C2759   1.476       .  S
C2355      C2746   1.497       .  S
C2356      C2775   1.488       .  S
C2357      C2791   1.491       .  S
C2368      N2386   1.353       .  A
C2368      C2405   1.485       .  S
C2368      C2509   1.506       .  S
N2369      N2386   1.320       .  A
N2369      N2391   1.315       .  A
C2370      N2395   1.354       .  A
C2370      C2408   1.467       .  S
C2370      H2415   1.081       .  S
H2371      C2412   1.077       .  S
C2372      N2396   1.334       .  A
C2372      C2376   1.467       .  S
C2372      H2401   1.082       .  S
Co2373     N2413   2.088   1_455  S
Co2373     N2389   2.110   1_455  S
Co2373    Cl2417   2.459       .  S
N2374      C2412   1.349       .  A
N2374      N2381   1.320       .  A
Co2375     N2395   2.082   1_455  S
Co2375     N2382   2.140   1_455  S
Co2375    Cl2417   2.487       .  S
C2376      N2414   1.360       .  A
C2376      C2491   1.487       .  S
N2377      N2384   1.314       .  A
N2377      N2407   1.329       .  A
N2378      N2396   1.320       .  A
N2378      N2414   1.333       .  A
N2379      C2408   1.351       .  A
N2379      N2389   1.317       .  A
H2380      C2405   1.082       .  S
N2381      N2402   1.321       .  A
N2382      N2400   1.321       .  A
N2382      N2387   1.345       .  A
C2383      N2387   1.368       .  A
C2383      C2411   1.463       .  S
C2383      C2522   1.520       .  S
N2384      C2399   1.341       .  A
C2385      N2413   1.349       .  A
C2385      C2388   1.464       .  S
C2385      H2419   1.082       .  S
C2388      N2409   1.359       .  A
C2388      C2504   1.487       .  S
N2389      N2395   1.321       .  A
N2390      C2416   1.340       .  A
N2390      N2392   1.318       .  A
N2390     Co2406   2.098   1_655  S
N2391      C2405   1.359       .  A
N2392      N2420   1.341       .  A
N2392     Co2410   2.140   1_655  S
H2393      C2416   1.081       .  S
H2394      C2411   1.081       .  S
N2397      N2409   1.325       .  A
N2397      N2413   1.319       .  A
N2397     Co2406   2.122   1_655  S
C2398      N2402   1.357       .  A
C2398      C2412   1.475       .  S
C2399      C2418   1.473       .  S
C2399      H2403   1.082       .  S
N2400      C2411   1.325       .  A
N2400     Co2410   2.082   1_655  S
C2404      N2420   1.367       .  A
C2404      C2416   1.468       .  S
Co2406    Cl2417   2.430       .  S
N2407      C2418   1.355       .  A
Co2410    Cl2417   2.449       .  S
C2421      C2422   1.407       .  A
C2421      C2426   1.438       .  A
C2422      H2427   1.082       .  S
C2422      C2423   1.383       .  A
C2423      C2730   1.478       .  S
C2423      C2424   1.383       .  A
C2424      H2428   1.085       .  S
C2424      C2425   1.406       .  A
C2425      C2591   1.504       .  S
C2425      C2426   1.437       .  A
C2426      H2429   1.082       .  S
C2430      C2431   1.410       .  A
C2430      C2435   1.428       .  A
C2431      H2436   1.084       .  S
C2431      C2432   1.390       .  A
C2432      C2714   1.480       .  S
C2432      C2433   1.386       .  A
C2433      H2437   1.084       .  S
C2433      C2434   1.405       .  A
C2434      C2601   1.495       .  S
C2434      C2435   1.422       .  A
C2435      H2438   1.083       .  S
C2439      C2440   1.395       .  A
C2439      C2444   1.422       .  A
C2440      H2445   1.086       .  S
C2440      C2441   1.385       .  A
C2441      C2698   1.484       .  S
C2441      C2442   1.410       .  A
C2442      H2446   1.083       .  S
C2442      C2443   1.420       .  A
C2443      C2597   1.509       .  S
C2443      C2444   1.424       .  A
C2444      H2447   1.083       .  S
C2448      C2611   1.480       .  S
C2448      C2449   1.413       .  A
C2448      C2453   1.411       .  A
C2449      H2454   1.083       .  S
C2449      C2450   1.405       .  A
C2450      C2682   1.479       .  S
C2450      C2451   1.384       .  A
C2451      H2455   1.086       .  S
C2451      C2452   1.398       .  A
C2452      C2453   1.406       .  A
C2453      H2456   1.084       .  S
N2457      C3023   1.346       .  A
N2457      C2461   1.362       .  A
N2457      H2489   1.039       .  S
N2458      C3587   1.356       .  A
N2458      C2466   1.345       .  A
N2459      C3025   1.358       .  A
N2459      C2463   1.355       .  A
N2459      H2490   1.042       .  S
N2460      C3589   1.348       .  A
N2460      C2468   1.340       .  A
C2461      C2469   1.381       .  A
C2461      C2477   1.419       .  A
C2462      N3018   1.346       .  A
C2462      C2478   1.414       .  A
C2462      C2470   1.392       .  A
C2463      C2471   1.390       .  A
C2463      C2480   1.417       .  A
C2464      N3020   1.356       .  A
C2464      C2479   1.408       .  A
C2464      C2472   1.380       .  A
C2465      N3580   1.356   1_545  A
C2465      C2477   1.414       .  A
C2465      C2473   1.384   1_545  A
C2466      C2480   1.414       .  A
C2466      C2474   1.390       .  A
C2467      N3582   1.348   1_545  A
C2467      C2475   1.383       .  A
C2467      C2478   1.401       .  A
C2468      C2476   1.391       .  A
C2468      C2479   1.406       .  A
C2469      H2481   1.083       .  S
C2469      C3031   1.368       .  A
C2470      H2482   1.074       .  S
C2470      C3030   1.367       .  A
C2471      H2483   1.082       .  S
C2471      C3033   1.377       .  A
C2472      H2484   1.082       .  S
C2472      C3032   1.377       .  A
C2473      H2485   1.080   1_565  S
C2473      C3596   1.373       .  A
C2474      H2486   1.083       .  S
C2474      C3595   1.375       .  A
C2475      H2487   1.080       .  S
C2475      C3598   1.360   1_545  A
C2476      H2488   1.079       .  S
C2476      C3597   1.359       .  A
C2477      C2711   1.483       .  S
C2478      C2695   1.494       .  S
C2479      C2679   1.484       .  S
C2480      C2727   1.479       .  S
C2491      C2492   1.397       .  A
C2491      C2496   1.426       .  A
C2492      H2497   1.086       .  S
C2492      C2493   1.382       .  A
C2493      C2663   1.468       .  S
C2493      C2494   1.391       .  A
C2494      H2498   1.084       .  S
C2494      C2495   1.408       .  A
C2495      C2561   1.495       .  S
C2495      C2496   1.426       .  A
C2496      H2499   1.083       .  S
C2500      C2576   1.484       .  S
C2500      C2501   1.395       .  A
C2500      C2505   1.422       .  A
C2501      H2506   1.084       .  S
C2501      C2502   1.386       .  A
C2502      C2647   1.477       .  S
C2502      C2503   1.395       .  A
C2503      H2507   1.080       .  S
C2503      C2504   1.399       .  A
C2504      C2505   1.424       .  A
C2505      H2508   1.083       .  S
C2509      C2510   1.426       .  A
C2509      C2514   1.407       .  A
C2510      H2515   1.082       .  S
C2510      C2511   1.429       .  A
C2511      C2581   1.490       .  S
C2511      C2512   1.402       .  A
C2512      H2516   1.085       .  S
C2512      C2513   1.390       .  A
C2513      C2634   1.488       .  S
C2513      C2514   1.395       .  A
C2514      H2517   1.082       .  S
C2518      C2569   1.519       .  S
C2518      C2519   1.412       .  A
C2518      C2523   1.444       .  A
C2519      H2524   1.080       .  S
C2519      C2520   1.381       .  A
C2520      C2615   1.487       .  S
C2520      C2521   1.382       .  A
C2521      H2525   1.081       .  S
C2521      C2522   1.413       .  A
C2522      C2523   1.443       .  A
C2523      H2526   1.082       .  S
N2527      C2532   1.355       .  A
N2527      C3653   1.352       .  A
N2527      H2559   1.044       .  S
N2528      C2535   1.340       .  A
N2529      C2534   1.357       .  A
N2529      C3655   1.339       .  A
N2529      H2560   1.040       .  S
N2530      C2537   1.354       .  A
C2531      N3649   1.347   1_545  A
C2531      C2539   1.385   1_545  A
C2531      C2547   1.408       .  A
C2532      C2548   1.422       .  A
C2532      C2540   1.390       .  A
C2533      N3651   1.338   1_545  A
C2533      C2541   1.370       .  A
C2533      C2550   1.401       .  A
C2534      C2549   1.417       .  A
C2534      C2542   1.384       .  A
C2535      C2547   1.396       .  A
C2535      C2543   1.376       .  A
C2536      C2550   1.416       .  A
C2536      C2544   1.396       .  A
C2537      C2545   1.377       .  A
C2537      C2548   1.405       .  A
C2538      C2546   1.390       .  A
C2538      C2549   1.420       .  A
C2539      H2551   1.083   1_565  S
C2539      C3662   1.381       .  A
C2540      H2552   1.082       .  S
C2540      C3661   1.382       .  A
C2541      H2553   1.068       .  S
C2541      C3664   1.375   1_545  A
C2542      H2554   1.073       .  S
C2542      C3663   1.372       .  A
C2543      H2555   1.082       .  S
C2544      H2556   1.081       .  S
C2545      H2557   1.082       .  S
C2546      H2558   1.074       .  S
C2547      C2650   1.488       .  S
C2548      C2618   1.484       .  S
C2549      C2666   1.481       .  S
C2550      C2631   1.522       .  S
C2561      N2579   1.354       .  A
C2561      C2598   1.472       .  S
N2562      N2579   1.321       .  A
N2562      N2584   1.318       .  A
N2562     Co3721   2.102       .  S
C2563      N2588   1.361       .  A
C2563      C2601   1.476       .  S
C2563      H2608   1.080       .  S
H2564      C2605   1.081       .  S
C2565      N2589   1.329       .  A
C2565      C2569   1.469       .  S
C2565      H2594   1.081       .  S
Co2566     N3706   2.104   1_545  S
Co2566     N3696   2.095   1_545  S
Co2566     N2606   2.118       .  S
Co2566     N2582   2.071       .  S
Co2566    Cl2610   2.475       .  S
N2567      C2605   1.362       .  A
N2567      N2574   1.321       .  A
N2567     Co3690   2.133       .  S
Co2568     N3689   2.127   1_545  S
Co2568     N3693   2.114   1_545  S
Co2568     N2588   2.117       .  S
Co2568     N2575   2.112       .  S
Co2568    Cl2610   2.473       .  S
C2569      N2607   1.365       .  A
N2570      N2577   1.321       .  A
N2570      N2600   1.330       .  A
N2570     Co2603   2.110       .  S
N2571      N2589   1.322       .  A
N2571      N2607   1.343       .  A
N2571     Co3690   2.129       .  S
N2572      C2601   1.347       .  A
N2572      N2582   1.312       .  A
H2573      C2598   1.082       .  S
N2574      N2595   1.317       .  A
N2574     Co3688   2.085       .  S
N2575      N2593   1.319       .  A
N2575      N2580   1.329       .  A
C2576      N2580   1.357       .  A
C2576      C2604   1.478       .  S
N2577      C2592   1.339       .  A
N2577     Co3721   2.082       .  S
C2578      N2606   1.352       .  A
C2578      C2581   1.478       .  S
C2578      H2612   1.078       .  S
C2581      N2602   1.354       .  A
N2582      N2588   1.319       .  A
N2583      C2609   1.342       .  A
N2583      N2585   1.318       .  A
N2583     Co2599   2.089       .  S
N2584      C2598   1.353       .  A
N2584     Co3688   2.093       .  S
N2585      N2613   1.338       .  A
N2585     Co3725   2.131       .  S
H2586      C2609   1.082       .  S
H2587      C2604   1.082       .  S
N2589     Co2603   2.106       .  S
N2590      N2602   1.320       .  A
N2590      N2606   1.318       .  A
N2590     Co2599   2.086       .  S
C2591      N2595   1.352       .  A
C2591      C2605   1.479       .  S
C2592      C2611   1.458       .  S
C2592      H2596   1.082       .  S
N2593      C2604   1.340       .  A
N2593     Co3725   2.100       .  S
C2597      N2613   1.365       .  A
C2597      C2609   1.463       .  S
Co2599     N3684   2.106   1_545  S
Co2599     N3699   2.086   1_545  S
Co2599    Cl2610   2.434       .  S
N2600      C2611   1.356       .  A
Co2603     N3707   2.123       .  S
Co2603     N3715   2.087       .  S
Co2603    Cl3732   2.462       .  S
Cl2610    Co3725   2.468       .  S
C2614      H2621   1.084       .  S
C2614      C2615   1.408       .  A
C2614      C2619   1.415       .  A
C2615      C2616   1.421       .  A
C2616      C2617   1.387       .  A
C2616      C2623   1.509       .  S
C2617      H2622   1.077       .  S
C2617      C2618   1.391       .  A
C2618      C2619   1.411       .  A
C2619      C2620   1.503       .  S
C2620      H2624   1.108       .  S
C2620      H2625   1.110       .  S
C2620      H2626   1.110       .  S
C2623      H2627   1.105       .  S
C2623      H2628   1.104       .  S
C2623      H2629   1.104       .  S
C2630      H2637   1.073       .  S
C2630      C2631   1.416       .  A
C2630      C2635   1.394       .  A
C2631      C2632   1.427       .  A
C2632      C2633   1.405       .  A
C2632      C2639   1.507       .  S
C2633      H2638   1.084       .  S
C2633      C2634   1.404       .  A
C2634      C2635   1.405       .  A
C2635      C2636   1.505       .  S
C2636      H2640   1.109       .  S
C2636      H2641   1.108       .  S
C2636      H2642   1.110       .  S
C2639      H2643   1.108       .  S
C2639      H2644   1.101       .  S
C2639      H2645   1.111       .  S
C2646      H2653   1.085       .  S
C2646      C2647   1.401       .  A
C2646      C2651   1.387       .  A
C2647      C2648   1.414       .  A
C2648      C2649   1.400       .  A
C2648      C2655   1.507       .  S
C2649      H2654   1.083   1_545  S
C2649      C2650   1.407       .  A
C2650      C2651   1.416       .  A
C2651      C2652   1.500       .  S
C2652      H2656   1.106       .  S
C2652      H2657   1.108       .  S
C2652      H2658   1.100       .  S
C2655      H2659   1.111   1_545  S
C2655      H2660   1.109       .  S
C2655      H2661   1.111   1_545  S
C2662      H2669   1.085       .  S
C2662      C2663   1.398       .  A
C2662      C2667   1.399       .  A
C2663      C2664   1.416       .  A
C2664      C2665   1.394       .  A
C2664      C2671   1.511       .  S
C2665      H2670   1.081       .  S
C2665      C2666   1.397       .  A
C2666      C2667   1.423       .  A
C2667      C2668   1.508       .  S
C2668      H2672   1.111       .  S
C2668      H2673   1.104       .  S
C2668      H2674   1.106       .  S
C2671      H2675   1.111       .  S
C2671      H2676   1.106       .  S
C2671      H2677   1.111       .  S
C2678      H2685   1.084       .  S
C2678      C2679   1.408       .  A
C2678      C2683   1.402       .  A
C2679      C2680   1.407       .  A
C2680      C2681   1.405       .  A
C2680      C2687   1.503       .  S
C2681      H2686   1.084       .  S
C2681      C2682   1.408       .  A
C2682      C2683   1.411       .  A
C2683      C2684   1.507       .  S
C2684      H2688   1.110       .  S
C2684      H2689   1.110       .  S
C2684      H2690   1.109       .  S
C2687      H2691   1.109       .  S
C2687      H2692   1.110       .  S
C2687      H2693   1.111       .  S
C2694      H2701   1.084       .  S
C2694      C2695   1.413       .  A
C2694      C2699   1.411       .  A
C2695      C2696   1.417       .  A
C2696      C2697   1.403       .  A
C2696      C2703   1.502       .  S
C2697      H2702   1.085       .  S
C2697      C2698   1.400       .  A
C2698      C2699   1.411       .  A
C2699      C2700   1.505       .  S
C2700      H2704   1.111       .  S
C2700      H2705   1.110       .  S
C2700      H2706   1.111       .  S
C2703      H2707   1.106       .  S
C2703      H2708   1.104       .  S
C2703      H2709   1.110       .  S
C2710      H2717   1.085       .  S
C2710      C2711   1.392       .  A
C2710      C2715   1.390       .  A
C2711      C2712   1.411       .  A
C2712      C2713   1.410       .  A
C2712      C2719   1.509       .  S
C2713      H2718   1.082       .  S
C2713      C2714   1.405       .  A
C2714      C2715   1.423       .  A
C2715      C2716   1.512       .  S
C2716      H2720   1.111       .  S
C2716      H2721   1.103       .  S
C2716      H2722   1.109       .  S
C2719      H2723   1.107       .  S
C2719      H2724   1.108       .  S
C2719      H2725   1.110       .  S
C2726      H2733   1.086       .  S
C2726      C2727   1.392       .  A
C2726      C2731   1.381       .  A
C2727      C2728   1.405       .  A
C2728      C2729   1.410       .  A
C2728      C2735   1.496       .  S
C2729      H2734   1.084       .  S
C2729      C2730   1.406       .  A
C2730      C2731   1.425       .  A
C2731      C2732   1.510       .  S
C2732      H2736   1.110       .  S
C2732      H2737   1.104       .  S
C2732      H2738   1.102       .  S
C2735      H2739   1.109       .  S
C2735      H2740   1.108       .  S
C2735      H2741   1.110       .  S
C2742      H2749   1.068       .  S
C2742      C2743   1.405       .  A
C2742      C2747   1.391       .  A
C2743      C2744   1.413       .  A
C2744      C2745   1.422       .  A
C2744      C2751   1.504       .  S
C2745      H2750   1.083       .  S
C2745      C2746   1.416       .  A
C2746      C2747   1.405       .  A
C2747      C2748   1.508       .  S
C2748      H2752   1.111       .  S
C2748      H2753   1.107       .  S
C2748      H2754   1.110       .  S
C2751      H2755   1.109       .  S
C2751      H2756   1.110       .  S
C2751      H2757   1.111       .  S
C2758      H2765   1.083       .  S
C2758      C2759   1.408       .  A
C2758      C2763   1.399       .  A
C2759      C2760   1.406       .  A
C2760      C2761   1.391       .  A
C2760      C2767   1.505       .  S
C2761      H2766   1.085       .  S
C2761      C2762   1.405       .  A
C2762      C2763   1.406       .  A
C2763      C2764   1.506       .  S
C2764      H2768   1.105       .  S
C2764      H2769   1.110       .  S
C2764      H2770   1.108       .  S
C2767      H2771   1.110       .  S
C2767      H2772   1.105       .  S
C2767      H2773   1.109       .  S
C2774      H2781   1.085       .  S
C2774      C2775   1.398       .  A
C2774      C2779   1.384       .  A
C2775      C2776   1.412       .  A
C2776      C2777   1.413       .  A
C2776      C2783   1.502       .  S
C2777      H2782   1.084       .  S
C2777      C2778   1.408       .  A
C2778      C2779   1.418       .  A
C2779      C2780   1.511       .  S
C2780      H2784   1.110       .  S
C2780      H2785   1.106       .  S
C2780      H2786   1.107       .  S
C2783      H2787   1.109       .  S
C2783      H2788   1.110       .  S
C2783      H2789   1.110       .  S
C2790      H2797   1.085       .  S
C2790      C2791   1.410       .  A
C2790      C2795   1.404       .  A
C2791      C2792   1.405       .  A
C2792      C2793   1.394       .  A
C2792      C2799   1.491       .  S
C2793      H2798   1.085       .  S
C2793      C2794   1.403       .  A
C2794      C2795   1.413       .  A
C2795      C2796   1.506       .  S
C2796      H2800   1.110       .  S
C2796      H2801   1.108       .  S
C2796      H2802   1.110       .  S
C2799      H2803   1.110       .  S
C2799      H2804   1.106       .  S
C2799      H2805   1.110       .  S
C2806      N2824   1.353       .  A
C2806      C2843   1.464       .  S
C2806      C2991   1.486       .  S
N2807      N2824   1.322       .  A
N2807      N2829   1.318       .  A
C2808      N2833   1.364       .  A
C2808      C2846   1.476       .  S
C2808      H2853   1.075       .  S
H2809      C2850   1.081       .  S
C2810      N2834   1.334       .  A
C2810      C2814   1.471       .  S
C2810      H2839   1.082       .  S
Co2811     N2851   2.116       .  S
Co2811     N2827   2.073       .  S
N2812      C2850   1.360       .  A
N2812      N2819   1.318       .  A
N2812     Co2813   2.103       .  S
Co2813     N2816   2.117       .  S
Co2813    Cl2855   2.497       .  S
C2814      N2852   1.361       .  A
C2814      C2982   1.513       .  S
N2815      N2822   1.320       .  A
N2815      N2845   1.335       .  A
N2815     Co2848   2.121       .  S
N2816      N2834   1.323       .  A
N2816      N2852   1.340       .  A
N2817      C2846   1.349       .  A
N2817      N2827   1.308       .  A
H2818      C2843   1.082       .  S
N2819      N2840   1.313       .  A
N2820      N2838   1.317       .  A
N2820      N2825   1.325       .  A
C2821      N2825   1.355       .  A
C2821      C2849   1.469       .  S
C2821      C3013   1.471       .  S
N2822      C2837   1.338       .  A
C2823      N2851   1.352       .  A
C2823      C2826   1.483       .  S
C2823      H2857   1.079       .  S
C2826      N2847   1.355       .  A
C2826      C3000   1.498       .  S
N2827      N2833   1.319       .  A
N2828      C2854   1.338       .  A
N2828      N2830   1.315       .  A
N2828     Co2844   2.086       .  S
N2829      C2843   1.349       .  A
N2830      N2858   1.333       .  A
H2831      C2854   1.082       .  S
H2832      C2849   1.082       .  S
N2834     Co2848   2.115       .  S
N2835      N2847   1.322       .  A
N2835      N2851   1.316       .  A
N2835     Co2844   2.090       .  S
C2836      N2840   1.351       .  A
C2836      C2850   1.474       .  S
C2836      C2868   1.499       .  S
C2837      C2856   1.462       .  S
C2837      H2841   1.082       .  S
N2838      C2849   1.332       .  A
C2842      N2858   1.363       .  A
C2842      C2854   1.470       .  S
C2842      C2881   1.495       .  S
N2845      C2856   1.362       .  A
C2846      C2890   1.504       .  S
Co2848    Cl2855   2.442       .  S
C2856      C2859   1.498       .  S
C2859      C2860   1.413       .  A
C2859      C2864   1.420       .  A
C2860      H2865   1.083       .  S
C2860      C2861   1.403       .  A
C2861      C3355   1.480       .  S
C2861      C2862   1.384       .  A
C2862      H2866   1.087       .  S
C2862      C2863   1.398       .  A
C2863      C2959   1.479       .  S
C2863      C2864   1.419       .  A
C2864      H2867   1.083       .  S
C2868      C2869   1.406       .  A
C2868      C2873   1.430       .  A
C2869      H2874   1.085       .  S
C2869      C2870   1.383       .  A
C2870      C3339   1.475       .  S
C2870      C2871   1.388       .  A
C2871      H2875   1.083       .  S
C2871      C2872   1.410       .  A
C2872      C2969   1.500       .  S
C2872      C2873   1.432       .  A
C2873      H2876   1.082       .  S
C2877      C2979   1.481       .  S
C2877      C2878   1.391       .  A
C2877      C2882   1.427       .  A
C2878      H2883   1.087       .  S
C2878      C2879   1.381       .  A
C2879      C3323   1.462       .  S
C2879      C2880   1.390       .  A
C2880      H2884   1.083       .  S
C2880      C2881   1.403       .  A
C2881      C2882   1.427       .  A
C2882      H2885   1.082       .  S
C2886      C2965   1.512       .  S
C2886      C2887   1.417       .  A
C2886      C2891   1.438       .  A
C2887      H2892   1.082       .  S
C2887      C2888   1.401       .  A
C2888      C3304   1.486       .  S
C2888      C2889   1.380       .  A
C2889      H2893   1.086       .  S
C2889      C2890   1.403       .  A
C2890      C2891   1.435       .  A
C2891      H2894   1.082       .  S
N2895      C2900   1.349       .  A
N2895      H2927   1.035       .  S
N2896      C2904   1.343       .  A
N2897      C2902   1.352       .  A
N2897      H2928   1.041       .  S
N2898      C2906   1.353       .  A
C2899      C2907   1.381       .  A
C2899      C2915   1.407       .  A
C2900      C2916   1.421       .  A
C2900      C2908   1.389       .  A
C2901      C2909   1.377       .  A
C2901      C2918   1.404       .  A
C2902      C2917   1.426       .  A
C2902      C2910   1.397       .  A
C2903      C2915   1.398       .  A
C2903      C2911   1.383       .  A
C2904      C2918   1.392       .  A
C2904      C2912   1.385       .  A
C2905      C2913   1.382   1_556  A
C2905      C2916   1.410       .  A
C2906      C2914   1.388       .  A
C2906      C2917   1.418       .  A
C2907      H2919   1.082       .  S
C2908      H2920   1.077       .  S
C2909      H2921   1.083       .  S
C2910      H2922   1.080       .  S
C2911      H2923   1.079       .  S
C2912      H2924   1.077       .  S
C2913      H2925   1.082   1_554  S
C2914      H2926   1.083       .  S
C2915      C3320   1.476       .  S
C2916      C3307   1.485       .  S
C2917      C3336   1.485       .  S
C2918      C3352   1.497       .  S
C2929      N2947   1.351       .  A
C2929      C2966   1.485       .  S
C2929      C3070   1.504       .  S
N2930      N2947   1.321       .  A
N2930      N2952   1.314       .  A
C2931      N2956   1.357       .  A
C2931      C2969   1.473       .  S
C2931      H2976   1.081       .  S
H2932      C2973   1.077       .  S
C2933      N2957   1.334       .  A
C2933      C2937   1.468       .  S
C2933      H2962   1.081       .  S
Co2934     N2974   2.077   1_455  S
Co2934     N2950   2.117   1_455  S
Co2934    Cl2978   2.441       .  S
N2935      C2973   1.347       .  A
N2935      N2942   1.320       .  A
Co2936     N2956   2.101   1_455  S
Co2936     N2943   2.131   1_455  S
Co2936    Cl2978   2.515       .  S
C2937      N2975   1.358       .  A
C2937      C3052   1.486       .  S
N2938      N2945   1.314       .  A
N2938      N2968   1.329       .  A
N2939      N2957   1.318       .  A
N2939      N2975   1.332       .  A
N2940      C2969   1.352       .  A
N2940      N2950   1.320       .  A
H2941      C2966   1.082       .  S
N2942      N2963   1.319       .  A
N2943      N2961   1.321       .  A
N2943      N2948   1.346       .  A
C2944      N2948   1.367       .  A
C2944      C2972   1.467       .  S
C2944      C3083   1.524       .  S
N2945      C2960   1.342       .  A
C2946      N2974   1.346       .  A
C2946      C2949   1.459       .  S
C2946      H2980   1.081       .  S
C2949      N2970   1.364       .  A
C2949      C3065   1.487       .  S
N2950      N2956   1.322       .  A
N2951      C2977   1.337       .  A
N2951      N2953   1.321       .  A
N2951     Co2967   2.115   1_655  S
N2952      C2966   1.358       .  A
N2953      N2981   1.340       .  A
N2953     Co2971   2.120   1_655  S
H2954      C2977   1.075       .  S
H2955      C2972   1.082       .  S
N2958      N2970   1.327       .  A
N2958      N2974   1.320       .  A
N2958     Co2967   2.140   1_655  S
C2959      N2963   1.356       .  A
C2959      C2973   1.473       .  S
C2960      C2979   1.477       .  S
C2960      H2964   1.082       .  S
N2961      C2972   1.326       .  A
N2961     Co2971   2.097   1_655  S
C2965      N2981   1.362       .  A
C2965      C2977   1.468       .  S
Co2967    Cl2978   2.457       .  S
N2968      C2979   1.357       .  A
Co2971    Cl2978   2.430       .  S
C2982      C2983   1.409       .  A
C2982      C2987   1.441       .  A
C2983      H2988   1.082       .  S
C2983      C2984   1.385       .  A
C2984      C3291   1.480       .  S
C2984      C2985   1.384       .  A
C2985      H2989   1.085       .  S
C2985      C2986   1.407       .  A
C2986      C3152   1.510       .  S
C2986      C2987   1.440       .  A
C2987      H2990   1.082       .  S
C2991      C2992   1.410       .  A
C2991      C2996   1.428       .  A
C2992      H2997   1.084       .  S
C2992      C2993   1.392       .  A
C2993      C3275   1.481       .  S
C2993      C2994   1.388       .  A
C2994      H2998   1.084       .  S
C2994      C2995   1.408       .  A
C2995      C3162   1.498       .  S
C2995      C2996   1.421       .  A
C2996      H2999   1.083       .  S
C3000      C3001   1.399       .  A
C3000      C3005   1.428       .  A
C3001      H3006   1.086       .  S
C3001      C3002   1.389       .  A
C3002      C3259   1.486       .  S
C3002      C3003   1.408       .  A
C3003      H3007   1.083       .  S
C3003      C3004   1.417       .  A
C3004      C3158   1.520       .  S
C3004      C3005   1.433       .  A
C3005      H3008   1.080       .  S
C3009      C3172   1.479       .  S
C3009      C3010   1.412       .  A
C3009      C3014   1.411       .  A
C3010      H3015   1.083       .  S
C3010      C3011   1.403       .  A
C3011      C3243   1.477       .  S
C3011      C3012   1.386       .  A
C3012      H3016   1.087       .  S
C3012      C3013   1.400       .  A
C3013      C3014   1.407       .  A
C3014      H3017   1.084       .  S
N3018      C3022   1.364       .  A
N3018      H3050   1.039       .  S
N3019      C4148   1.354       .  A
N3019      C3027   1.344       .  A
N3020      C3024   1.356       .  A
N3020      H3051   1.042       .  S
N3021      C4150   1.346       .  A
N3021      C3029   1.339       .  A
C3022      C3030   1.381       .  A
C3022      C3038   1.420       .  A
C3023      C3039   1.414   1_554  A
C3023      C3031   1.392       .  A
C3024      C3032   1.389       .  A
C3024      C3041   1.416       .  A
C3025      C3040   1.411   1_554  A
C3025      C3033   1.380       .  A
C3026      N4141   1.355   1_545  A
C3026      C3038   1.413       .  A
C3026      C3034   1.384   1_545  A
C3027      C3041   1.413       .  A
C3027      C3035   1.389       .  A
C3028      N4143   1.350   1_545  A
C3028      C3036   1.383       .  A
C3028      C3039   1.404       .  A
C3029      C3037   1.392       .  A
C3029      C3040   1.406       .  A
C3030      H3042   1.083       .  S
C3031      H3043   1.075       .  S
C3032      H3044   1.082       .  S
C3033      H3045   1.082       .  S
C3034      H3046   1.080   1_565  S
C3034      C4157   1.374       .  A
C3035      H3047   1.083       .  S
C3035      C4156   1.375       .  A
C3036      H3048   1.079       .  S
C3036      C4159   1.359   1_545  A
C3037      H3049   1.080       .  S
C3037      C4158   1.365       .  A
C3038      C3272   1.482       .  S
C3039      C3256   1.494       .  S
C3040      C3240   1.485       .  S
C3041      C3288   1.480       .  S
C3052      C3053   1.396       .  A
C3052      C3057   1.425       .  A
C3053      H3058   1.086       .  S
C3053      C3054   1.382       .  A
C3054      C3224   1.470       .  S
C3054      C3055   1.393       .  A
C3055      H3059   1.084       .  S
C3055      C3056   1.409       .  A
C3056      C3122   1.497       .  S
C3056      C3057   1.426       .  A
C3057      H3060   1.083       .  S
C3061      C3137   1.505       .  S
C3061      C3062   1.403       .  A
C3061      C3066   1.432       .  A
C3062      H3067   1.077       .  S
C3062      C3063   1.403       .  A
C3063      C3208   1.518       .  S
C3063      C3064   1.391       .  A
C3064      H3068   1.084       .  S
C3064      C3065   1.404       .  A
C3065      C3066   1.436       .  A
C3066      H3069   1.082       .  S
C3070      C3071   1.424       .  A
C3070      C3075   1.409       .  A
C3071      H3076   1.082       .  S
C3071      C3072   1.426       .  A
C3072      C3142   1.487       .  S
C3072      C3073   1.399       .  A
C3073      H3077   1.085       .  S
C3073      C3074   1.390       .  A
C3074      C3195   1.492       .  S
C3074      C3075   1.401       .  A
C3075      H3078   1.082       .  S
C3079      C3130   1.525       .  S
C3079      C3080   1.414       .  A
C3079      C3084   1.447       .  A
C3080      H3085   1.079       .  S
C3080      C3081   1.385       .  A
C3081      C3176   1.487       .  S
C3081      C3082   1.384       .  A
C3082      H3086   1.082       .  S
C3082      C3083   1.411       .  A
C3083      C3084   1.446       .  A
C3084      H3087   1.082       .  S
N3088      C3093   1.352       .  A
N3088      C4214   1.351       .  A
N3088      H3120   1.045       .  S
N3089      C3096   1.352       .  A
N3090      C3095   1.350       .  A
N3090      C4216   1.334       .  A
N3090      H3121   1.032       .  S
N3091      C3098   1.354       .  A
C3092      N4210   1.357       .  A
C3092      C3100   1.393       .  A
C3092      C3108   1.435       .  A
C3093      C3109   1.421       .  A
C3093      C3101   1.391       .  A
C3094      N4212   1.340   1_545  A
C3094      C3102   1.371       .  A
C3094      C3111   1.406       .  A
C3095      C3110   1.413       .  A
C3095      C3103   1.382       .  A
C3096      C3108   1.408       .  A
C3096      C3104   1.381       .  A
C3097      C3111   1.413       .  A
C3097      C3105   1.396       .  A
C3098      C3106   1.379       .  A
C3098      C3109   1.408       .  A
C3099      C3107   1.392       .  A
C3099      C3110   1.419       .  A
C3100      H3112   1.081       .  S
C3100      C4223   1.388   1_545  A
C3101      H3113   1.082       .  S
C3101      C4222   1.385       .  A
C3102      H3114   1.069       .  S
C3102      C4225   1.367   1_545  A
C3103      H3115   1.076       .  S
C3103      C4224   1.379       .  A
C3104      H3116   1.082       .  S
C3105      H3117   1.080       .  S
C3106      H3118   1.082       .  S
C3107      H3119   1.073       .  S
C3108      C3211   1.546       .  S
C3109      C3179   1.487       .  S
C3110      C3227   1.487       .  S
C3111      C3192   1.526       .  S
C3122      N3140   1.354       .  A
C3122      C3159   1.472       .  S
N3123      N3140   1.322       .  A
N3123      N3145   1.318       .  A
N3123     Co4282   2.102       .  S
C3124      N3149   1.364       .  A
C3124      C3162   1.482       .  S
C3124      H3169   1.078       .  S
H3125      C3166   1.081       .  S
C3126      N3150   1.332       .  A
C3126      C3130   1.470       .  S
C3126      H3155   1.081       .  S
Co3127     N4267   2.085   1_545  S
Co3127     N4257   2.072   1_545  S
Co3127     N3167   2.103       .  S
Co3127     N3143   2.057       .  S
Co3127    Cl3171   2.473       .  S
N3128      C3166   1.363       .  A
N3128      N3135   1.323       .  A
N3128     Co4251   2.140       .  S
Co3129     N4250   2.132   1_545  S
Co3129     N4254   2.124   1_545  S
Co3129     N3149   2.134       .  S
Co3129     N3136   2.131       .  S
Co3129    Cl3171   2.472       .  S
C3130      N3168   1.368       .  A
N3131      N3138   1.321       .  A
N3131      N3161   1.329       .  A
N3131     Co3164   2.111       .  S
N3132      N3150   1.321       .  A
N3132      N3168   1.344       .  A
N3132     Co4251   2.136       .  S
N3133      C3162   1.343       .  A
N3133      N3143   1.309       .  A
H3134      C3159   1.082       .  S
N3135      N3156   1.319       .  A
N3135     Co4249   2.097       .  S
N3136      N3154   1.322       .  A
N3136      N3141   1.338       .  A
C3137      N3141   1.362       .  A
C3137      C3165   1.464       .  S
N3138      C3153   1.338       .  A
N3138     Co4282   2.080       .  S
C3139      N3167   1.349       .  A
C3139      C3142   1.472       .  S
C3139      H3173   1.077       .  S
C3142      N3163   1.357       .  A
N3143      N3149   1.319       .  A
N3144      C3170   1.345       .  A
N3144      N3146   1.321       .  A
N3144     Co3160   2.092       .  S
N3145      C3159   1.354       .  A
N3145     Co4249   2.096       .  S
N3146      N3174   1.339       .  A
N3146     Co4286   2.164       .  S
H3147      C3170   1.082       .  S
H3148      C3165   1.070       .  S
N3150     Co3164   2.108       .  S
N3151      N3163   1.322       .  A
N3151      N3167   1.316       .  A
N3151     Co3160   2.096       .  S
C3152      N3156   1.354       .  A
C3152      C3166   1.480       .  S
C3153      C3172   1.459       .  S
C3153      H3157   1.082       .  S
N3154      C3165   1.332       .  A
N3154     Co4286   2.099       .  S
C3158      N3174   1.368       .  A
C3158      C3170   1.463       .  S
Co3160     N4245   2.106   1_545  S
Co3160     N4260   2.088   1_545  S
Co3160    Cl3171   2.438       .  S
N3161      C3172   1.356       .  A
Co3164     N4268   2.116       .  S
Co3164     N4276   2.101       .  S
Co3164    Cl4293   2.462       .  S
Cl3171    Co4286   2.471       .  S
C3175      H3182   1.083       .  S
C3175      C3176   1.407       .  A
C3175      C3180   1.416       .  A
C3176      C3177   1.419       .  A
C3177      C3178   1.389       .  A
C3177      C3184   1.509       .  S
C3178      H3183   1.071       .  S
C3178      C3179   1.391       .  A
C3179      C3180   1.409       .  A
C3180      C3181   1.500       .  S
C3181      H3185   1.101       .  S
C3181      H3186   1.109       .  S
C3181      H3187   1.111       .  S
C3184      H3188   1.106       .  S
C3184      H3189   1.095       .  S
C3184      H3190   1.098       .  S
C3191      H3198   1.075       .  S
C3191      C3192   1.418       .  A
C3191      C3196   1.395       .  A
C3192      C3193   1.430       .  A
C3193      C3194   1.404       .  A
C3193      C3200   1.506       .  S
C3194      H3199   1.084       .  S
C3194      C3195   1.405       .  A
C3195      C3196   1.403       .  A
C3196      C3197   1.502       .  S
C3197      H3201   1.108       .  S
C3197      H3202   1.108       .  S
C3197      H3203   1.110       .  S
C3200      H3204   1.111       .  S
C3200      H3205   1.091       .  S
C3200      H3206   1.111       .  S
C3207      H3214   1.079       .  S
C3207      C3208   1.404       .  A
C3207      C3212   1.408       .  A
C3208      C3209   1.399       .  A
C3209      C3210   1.407       .  A
C3209      C3216   1.501       .  S
C3210      H3215   1.068       .  S
C3210      C3211   1.417       .  A
C3211      C3212   1.442       .  A
C3212      C3213   1.502       .  S
C3213      H3217   1.105       .  S
C3213      H3218   1.105       .  S
C3213      H3219   1.101       .  S
C3216      H3220   1.100       .  S
C3216      H3221   1.111       .  S
C3216      H3222   1.104       .  S
C3223      H3230   1.085       .  S
C3223      C3224   1.395       .  A
C3223      C3228   1.397       .  A
C3224      C3225   1.413       .  A
C3225      C3226   1.400       .  A
C3225      C3232   1.508       .  S
C3226      H3231   1.082       .  S
C3226      C3227   1.400       .  A
C3227      C3228   1.424       .  A
C3228      C3229   1.502       .  S
C3229      H3233   1.110       .  S
C3229      H3234   1.104       .  S
C3229      H3235   1.099       .  S
C3232      H3236   1.109       .  S
C3232      H3237   1.110       .  S
C3232      H3238   1.109       .  S
C3239      H3246   1.085   1_556  S
C3239      C3240   1.408       .  A
C3239      C3244   1.402       .  A
C3240      C3241   1.407       .  A
C3241      C3242   1.403       .  A
C3241      C3248   1.500       .  S
C3242      H3247   1.085       .  S
C3242      C3243   1.407       .  A
C3243      C3244   1.411       .  A
C3244      C3245   1.506       .  S
C3245      H3249   1.110       .  S
C3245      H3250   1.108       .  S
C3245      H3251   1.110   1_556  S
C3248      H3252   1.105       .  S
C3248      H3253   1.109       .  S
C3248      H3254   1.110       .  S
C3255      H3262   1.084   1_556  S
C3255      C3256   1.410       .  A
C3255      C3260   1.408       .  A
C3256      C3257   1.421       .  A
C3257      C3258   1.405       .  A
C3257      C3264   1.506       .  S
C3258      H3263   1.085       .  S
C3258      C3259   1.402       .  A
C3259      C3260   1.411       .  A
C3260      C3261   1.506       .  S
C3261      H3265   1.111       .  S
C3261      H3266   1.109       .  S
C3261      H3267   1.111       .  S
C3264      H3268   1.107       .  S
C3264      H3269   1.104       .  S
C3264      H3270   1.109       .  S
C3271      H3278   1.086       .  S
C3271      C3272   1.391       .  A
C3271      C3276   1.391       .  A
C3272      C3273   1.408       .  A
C3273      C3274   1.411       .  A
C3273      C3280   1.507       .  S
C3274      H3279   1.082       .  S
C3274      C3275   1.407       .  A
C3275      C3276   1.423       .  A
C3276      C3277   1.511       .  S
C3277      H3281   1.111       .  S
C3277      H3282   1.102       .  S
C3277      H3283   1.109       .  S
C3280      H3284   1.108       .  S
C3280      H3285   1.107       .  S
C3280      H3286   1.109       .  S
C3287      H3294   1.085       .  S
C3287      C3288   1.392       .  A
C3287      C3292   1.381       .  A
C3288      C3289   1.405       .  A
C3289      C3290   1.412       .  A
C3289      C3296   1.496       .  S
C3290      H3295   1.084       .  S
C3290      C3291   1.407       .  A
C3291      C3292   1.424       .  A
C3292      C3293   1.510       .  S
C3293      H3297   1.109       .  S
C3293      H3298   1.105       .  S
C3293      H3299   1.101       .  S
C3296      H3300   1.109       .  S
C3296      H3301   1.109       .  S
C3296      H3302   1.110       .  S
C3303      H3310   1.084       .  S
C3303      C3304   1.402       .  A
C3303      C3308   1.397       .  A
C3304      C3305   1.404       .  A
C3305      C3306   1.406       .  A
C3305      C3312   1.485       .  S
C3306      H3311   1.084       .  S
C3306      C3307   1.402       .  A
C3307      C3308   1.416       .  A
C3308      C3309   1.505       .  S
C3309      H3313   1.110   1_556  S
C3309      H3314   1.111       .  S
C3309      H3315   1.108   1_556  S
C3312      H3316   1.095       .  S
C3312      H3317   1.106       .  S
C3312      H3318   1.109       .  S
C3319      H3326   1.084       .  S
C3319      C3320   1.407       .  A
C3319      C3324   1.394       .  A
C3320      C3321   1.408       .  A
C3321      C3322   1.394       .  A
C3321      C3328   1.507       .  S
C3322      H3327   1.085       .  S
C3322      C3323   1.407       .  A
C3323      C3324   1.402       .  A
C3324      C3325   1.506       .  S
C3325      H3329   1.105       .  S
C3325      H3330   1.110       .  S
C3325      H3331   1.108       .  S
C3328      H3332   1.111       .  S
C3328      H3333   1.107       .  S
C3328      H3334   1.110       .  S
C3335      H3342   1.082       .  S
C3335      C3336   1.395       .  A
C3335      C3340   1.382       .  A
C3336      C3337   1.411       .  A
C3337      C3338   1.413       .  A
C3337      C3344   1.501       .  S
C3338      H3343   1.084       .  S
C3338      C3339   1.406       .  A
C3339      C3340   1.419       .  A
C3340      C3341   1.512       .  S
C3341      H3345   1.111       .  S
C3341      H3346   1.108       .  S
C3341      H3347   1.097       .  S
C3344      H3348   1.110       .  S
C3344      H3349   1.110       .  S
C3344      H3350   1.106       .  S
C3351      H3358   1.085       .  S
C3351      C3352   1.409       .  A
C3351      C3356   1.404       .  A
C3352      C3353   1.406       .  A
C3353      C3354   1.397       .  A
C3353      C3360   1.491       .  S
C3354      H3359   1.085       .  S
C3354      C3355   1.403       .  A
C3355      C3356   1.415       .  A
C3356      C3357   1.506       .  S
C3357      H3361   1.110       .  S
C3357      H3362   1.107       .  S
C3357      H3363   1.110       .  S
C3360      H3364   1.109       .  S
C3360      H3365   1.107       .  S
C3360      H3366   1.110       .  S
C3367      N3385   1.356       .  A
C3367      C3404   1.462       .  S
C3367      C3552   1.490       .  S
N3368      N3385   1.323       .  A
N3368      N3390   1.318       .  A
N3368     Co3966   2.109   1_554  S
C3369      N3394   1.371       .  A
C3369      C3407   1.488       .  S
C3369      H3414   1.079       .  S
H3370      C3411   1.081       .  S
C3371      N3395   1.334       .  A
C3371      C3375   1.472       .  S
C3371      H3400   1.082       .  S
Co3372     N3951   2.080       .  S
Co3372     N3941   2.073       .  S
Co3372     N3412   2.103       .  S
Co3372     N3388   2.070       .  S
Co3372    Cl3977   2.443       .  S
N3373      C3411   1.364       .  A
N3373      N3380   1.316       .  A
N3373     Co3374   2.120   1_554  S
Co3374     N3377   2.101   1_556  S
Co3374     N3955   2.125       .  S
Co3374     N3942   2.097       .  S
Co3374    Cl3416   2.495       .  S
C3375      N3413   1.357       .  A
C3375      C3543   1.505       .  S
N3376      N3383   1.319       .  A
N3376      N3406   1.334       .  A
N3376     Co3409   2.111   1_554  S
N3377      N3395   1.324       .  A
N3377      N3413   1.337       .  A
N3378      C3407   1.341       .  A
N3378      N3388   1.306       .  A
H3379      C3404   1.081       .  S
N3380      N3401   1.308       .  A
N3380     Co3933   2.056   1_554  S
N3381      N3399   1.317       .  A
N3381      N3386   1.326       .  A
N3381     Co3935   2.084       .  S
C3382      N3386   1.354       .  A
C3382      C3410   1.473       .  S
C3382      C3574   1.473       .  S
N3383      C3398   1.339       .  A
N3383     Co3966   2.101   1_554  S
C3384      N3412   1.347       .  A
C3384      C3387   1.468       .  S
C3384      H3418   1.067       .  S
C3387      N3408   1.352       .  A
C3387      C3561   1.479       .  S
N3388      N3394   1.317       .  A
N3389      C3415   1.337       .  A
N3389      N3391   1.314       .  A
N3389     Co3405   2.088       .  S
N3390      C3404   1.350       .  A
N3390     Co3933   2.081   1_554  S
N3391      N3419   1.330       .  A
N3391     Co3970   2.095       .  S
H3392      C3415   1.082       .  S
H3393      C3410   1.082       .  S
N3394     Co3935   2.134       .  S
N3395     Co3409   2.120   1_554  S
N3396      N3408   1.320       .  A
N3396      N3412   1.312       .  A
N3396     Co3405   2.068       .  S
C3397      N3401   1.342       .  A
C3397      C3411   1.482       .  S
C3397      C3429   1.496       .  S
C3398      C3417   1.467       .  S
C3398      H3402   1.082       .  S
N3399      C3410   1.334       .  A
N3399     Co3970   2.089       .  S
C3403      N3419   1.359       .  A
C3403      C3415   1.470       .  S
C3403      C3442   1.484       .  S
Co3405     N3929   2.119       .  S
Co3405     N3944   2.090       .  S
Co3405    Cl3977   2.432       .  S
N3406      C3417   1.360       .  A
C3407      C3451   1.512       .  S
Co3409     N3952   2.113       .  S
Co3409     N3960   2.079       .  S
Co3409    Cl3416   2.443       .  S
Cl3416    Co3933   2.441       .  S
Cl3416    Co3966   2.436       .  S
C3417      C3420   1.496       .  S
C3420      C3421   1.407       .  A
C3420      C3425   1.424       .  A
C3421      H3426   1.084       .  S
C3421      C3422   1.400       .  A
C3422      C3916   1.475       .  S
C3422      C3423   1.387       .  A
C3423      H3427   1.086       .  S
C3423      C3424   1.398       .  A
C3424      C3520   1.485       .  S
C3424      C3425   1.424       .  A
C3425      H3428   1.083       .  S
C3429      C3430   1.412       .  A
C3429      C3434   1.423       .  A
C3430      H3435   1.084       .  S
C3430      C3431   1.383       .  A
C3431      C3900   1.480       .  S
C3431      C3432   1.387       .  A
C3432      H3436   1.083       .  S
C3432      C3433   1.412       .  A
C3433      C3530   1.492       .  S
C3433      C3434   1.426       .  A
C3434      H3437   1.082       .  S
C3438      C3540   1.479       .  S
C3438      C3439   1.396       .  A
C3438      C3443   1.421       .  A
C3439      H3444   1.086       .  S
C3439      C3440   1.386       .  A
C3440      C3884   1.462       .  S
C3440      C3441   1.387       .  A
C3441      H3445   1.085       .  S
C3441      C3442   1.401       .  A
C3442      C3443   1.421       .  A
C3443      H3446   1.083       .  S
C3447      C3526   1.515       .  S
C3447      C3448   1.424       .  A
C3447      C3452   1.432       .  A
C3448      H3453   1.077       .  S
C3448      C3449   1.403       .  A
C3449      C3865   1.509       .  S
C3449      C3450   1.397       .  A
C3450      H3454   1.085       .  S
C3450      C3451   1.412       .  A
C3451      C3452   1.427       .  A
C3452      H3455   1.082       .  S
N3456      C3461   1.344       .  A
N3456      H3488   1.040       .  S
N3457      C4025   1.340       .  A
N3457      C3465   1.342   1_556  A
N3458      C3463   1.353       .  A
N3458      H3489   1.040       .  S
N3459      C4027   1.356   1_554  A
N3459      C3467   1.354       .  A
C3460      C3468   1.382       .  A
C3460      C3476   1.408       .  A
C3461      C3477   1.415       .  A
C3461      C3469   1.395       .  A
C3462      C3470   1.380       .  A
C3462      C3479   1.408       .  A
C3463      C3478   1.422       .  A
C3463      C3471   1.394       .  A
C3464      N4018   1.341       .  A
C3464      C3476   1.395       .  A
C3464      C3472   1.379       .  A
C3465      C3479   1.397       .  A
C3465      C3473   1.387       .  A
C3466      N4020   1.355       .  A
C3466      C3474   1.383       .  A
C3466      C3477   1.419       .  A
C3467      C3475   1.386       .  A
C3467      C3478   1.418       .  A
C3468      H3480   1.082       .  S
C3469      H3481   1.071       .  S
C3470      H3482   1.083       .  S
C3471      H3483   1.080       .  S
C3472      H3484   1.080       .  S
C3472      C4034   1.363       .  A
C3473      H3485   1.077       .  S
C3473      C4033   1.360   1_554  A
C3474      H3486   1.082       .  S
C3474      C4036   1.383       .  A
C3475      H3487   1.083       .  S
C3475      C4035   1.378   1_554  A
C3476      C3881   1.477       .  S
C3477      C3868   1.492       .  S
C3478      C3897   1.491       .  S
C3479      C3913   1.494       .  S
C3490      N3508   1.354       .  A
C3490      C3527   1.488       .  S
C3490      C3631   1.515       .  S
N3491      N3508   1.323       .  A
N3491      N3513   1.316       .  A
C3492      N3517   1.356       .  A
C3492      C3530   1.472       .  S
C3492      H3537   1.081       .  S
H3493      C3534   1.077       .  S
C3494      N3518   1.333       .  A
C3494      C3498   1.466       .  S
C3494      H3523   1.081       .  S
Co3495     N3535   2.086   1_455  S
Co3495     N3511   2.102   1_455  S
Co3495    Cl3539   2.444       .  S
N3496      C3534   1.349       .  A
N3496      N3503   1.322       .  A
Co3497     N3517   2.096   1_455  S
Co3497     N3504   2.141   1_455  S
Co3497    Cl3539   2.503       .  S
C3498      N3536   1.360       .  A
C3498      C3613   1.485       .  S
N3499      N3506   1.314       .  A
N3499      N3529   1.329       .  A
N3500      N3518   1.319       .  A
N3500      N3536   1.332       .  A
N3501      C3530   1.348       .  A
N3501      N3511   1.317       .  A
H3502      C3527   1.082       .  S
N3503      N3524   1.323       .  A
N3504      N3522   1.322       .  A
N3504      N3509   1.346       .  A
C3505      N3509   1.368       .  A
C3505      C3533   1.464       .  S
C3505      C3644   1.522       .  S
N3506      C3521   1.338       .  A
C3507      N3535   1.347       .  A
C3507      C3510   1.462       .  S
C3507      H3541   1.081       .  S
C3510      N3531   1.358       .  A
C3510      C3626   1.483       .  S
N3511      N3517   1.322       .  A
N3512      C3538   1.334       .  A
N3512      N3514   1.318       .  A
N3512     Co3528   2.086   1_655  S
N3513      C3527   1.362       .  A
N3514      N3542   1.341       .  A
N3514     Co3532   2.138   1_655  S
H3515      C3538   1.080       .  S
H3516      C3533   1.082       .  S
N3519      N3531   1.324       .  A
N3519      N3535   1.319       .  A
N3519     Co3528   2.116   1_655  S
C3520      N3524   1.357       .  A
C3520      C3534   1.473       .  S
C3521      C3540   1.471       .  S
C3521      H3525   1.082       .  S
N3522      C3533   1.325       .  A
N3522     Co3532   2.089   1_655  S
C3526      N3542   1.368       .  A
C3526      C3538   1.463       .  S
Co3528    Cl3539   2.444       .  S
N3529      C3540   1.358       .  A
Co3532    Cl3539   2.437       .  S
C3543      C3544   1.408       .  A
C3543      C3548   1.438       .  A
C3544      H3549   1.083       .  S
C3544      C3545   1.384       .  A
C3545      C3852   1.479       .  S
C3545      C3546   1.383       .  A
C3546      H3550   1.085       .  S
C3546      C3547   1.405       .  A
C3547      C3713   1.504       .  S
C3547      C3548   1.438       .  A
C3548      H3551   1.082       .  S
C3552      C3553   1.408       .  A
C3552      C3557   1.433       .  A
C3553      H3558   1.084       .  S
C3553      C3554   1.389       .  A
C3554      C3836   1.480       .  S
C3554      C3555   1.386       .  A
C3555      H3559   1.083       .  S
C3555      C3556   1.408       .  A
C3556      C3723   1.502       .  S
C3556      C3557   1.425       .  A
C3557      H3560   1.083       .  S
C3561      C3562   1.396       .  A
C3561      C3566   1.418       .  A
C3562      H3567   1.086       .  S
C3562      C3563   1.385       .  A
C3563      C3820   1.483       .  S
C3563      C3564   1.407       .  A
C3564      H3568   1.083       .  S
C3564      C3565   1.419       .  A
C3565      C3719   1.502       .  S
C3565      C3566   1.421       .  A
C3566      H3569   1.083       .  S
C3570      C3733   1.485       .  S
C3570      C3571   1.413       .  A
C3570      C3575   1.414       .  A
C3571      H3576   1.083       .  S
C3571      C3572   1.404       .  A
C3572      C3804   1.478       .  S
C3572      C3573   1.384       .  A
C3573      H3577   1.086       .  S
C3573      C3574   1.397       .  A
C3574      C3575   1.411       .  A
C3575      H3578   1.083       .  S
N3579      C4145   1.346       .  A
N3579      C3583   1.362       .  A
N3579      H3611   1.040       .  S
N3580      C3588   1.345       .  A
N3581      C4147   1.357       .  A
N3581      C3585   1.356       .  A
N3581      H3612   1.041       .  S
N3582      C3590   1.340       .  A
C3583      C3591   1.381       .  A
C3583      C3599   1.417       .  A
C3584      N4140   1.345       .  A
C3584      C3600   1.412       .  A
C3584      C3592   1.392       .  A
C3585      C3593   1.391       .  A
C3585      C3602   1.419       .  A
C3586      N4142   1.357       .  A
C3586      C3601   1.411       .  A
C3586      C3594   1.381       .  A
C3587      C3599   1.416       .  A
C3587      C3595   1.385       .  A
C3588      C3602   1.415       .  A
C3588      C3596   1.390       .  A
C3589      C3597   1.384       .  A
C3589      C3600   1.402       .  A
C3590      C3598   1.391       .  A
C3590      C3601   1.406       .  A
C3591      H3603   1.083       .  S
C3591      C4153   1.367       .  A
C3592      H3604   1.075       .  S
C3592      C4152   1.366       .  A
C3593      H3605   1.083       .  S
C3593      C4155   1.376       .  A
C3594      H3606   1.082       .  S
C3594      C4154   1.376       .  A
C3595      H3607   1.082       .  S
C3596      H3608   1.082       .  S
C3597      H3609   1.080       .  S
C3598      H3610   1.079       .  S
C3599      C3833   1.482       .  S
C3600      C3817   1.491       .  S
C3601      C3801   1.484       .  S
C3602      C3849   1.480       .  S
C3613      C3614   1.398       .  A
C3613      C3618   1.422       .  A
C3614      H3619   1.086       .  S
C3614      C3615   1.386       .  A
C3615      C3785   1.478       .  S
C3615      C3616   1.401       .  A
C3616      H3620   1.084       .  S
C3616      C3617   1.412       .  A
C3617      C3683   1.501       .  S
C3617      C3618   1.422       .  A
C3618      H3621   1.083       .  S
C3622      C3698   1.480       .  S
C3622      C3623   1.400       .  A
C3622      C3627   1.417       .  A
C3623      H3628   1.083       .  S
C3623      C3624   1.391       .  A
C3624      C3769   1.483       .  S
C3624      C3625   1.398       .  A
C3625      H3629   1.084       .  S
C3625      C3626   1.399       .  A
C3626      C3627   1.418       .  A
C3627      H3630   1.083       .  S
C3631      C3632   1.430       .  A
C3631      C3636   1.407       .  A
C3632      H3637   1.082       .  S
C3632      C3633   1.433       .  A
C3633      C3703   1.498       .  S
C3633      C3634   1.404       .  A
C3634      H3638   1.085       .  S
C3634      C3635   1.394       .  A
C3635      C3756   1.497       .  S
C3635      C3636   1.400       .  A
C3636      H3639   1.081       .  S
C3640      C3691   1.519       .  S
C3640      C3641   1.408       .  A
C3640      C3645   1.448       .  A
C3641      H3646   1.081       .  S
C3641      C3642   1.378       .  A
C3642      C3737   1.484       .  S
C3642      C3643   1.381       .  A
C3643      H3647   1.082       .  S
C3643      C3644   1.412       .  A
C3644      C3645   1.447       .  A
C3645      H3648   1.082       .  S
N3649      C3654   1.354       .  A
N3649      H3681   1.043       .  S
N3650      C3657   1.337   1_455  A
N3651      C3656   1.354       .  A
N3651      H3682   1.039       .  S
N3652      C3659   1.352       .  A
C3653      C3661   1.384       .  A
C3653      C3669   1.412       .  A
C3654      C3670   1.422       .  A
C3654      C3662   1.391       .  A
C3655      C3663   1.372       .  A
C3655      C3672   1.405       .  A
C3656      C3671   1.417       .  A
C3656      C3664   1.383       .  A
C3657      C3669   1.400       .  A
C3657      C3665   1.377       .  A
C3658      C3672   1.416       .  A
C3658      C3666   1.396       .  A
C3659      C3667   1.379       .  A
C3659      C3670   1.408       .  A
C3660      C3668   1.393       .  A
C3660      C3671   1.423       .  A
C3661      H3673   1.082       .  S
C3662      H3674   1.082       .  S
C3663      H3675   1.071       .  S
C3664      H3676   1.075       .  S
C3665      H3677   1.082       .  S
C3666      H3678   1.080       .  S
C3667      H3679   1.083       .  S
C3668      H3680   1.071       .  S
C3669      C3772   1.507       .  S
C3670      C3740   1.486       .  S
C3671      C3788   1.487       .  S
C3672      C3753   1.526       .  S
C3683      N3701   1.354       .  A
C3683      C3720   1.474       .  S
N3684      N3701   1.325       .  A
N3684      N3706   1.320       .  A
C3685      N3710   1.364       .  A
C3685      C3723   1.484       .  S
C3685      H3730   1.079       .  S
H3686      C3727   1.081       .  S
C3687      N3711   1.333       .  A
C3687      C3691   1.476       .  S
C3687      H3716   1.082       .  S
Co3688     N3728   2.130       .  S
Co3688     N3704   2.066       .  S
Co3688    Cl3732   2.479       .  S
N3689      C3727   1.361       .  A
N3689      N3696   1.321       .  A
Co3690     N3710   2.138       .  S
Co3690     N3697   2.112       .  S
Co3690    Cl3732   2.469       .  S
C3691      N3729   1.362       .  A
N3692      N3699   1.323       .  A
N3692      N3722   1.332       .  A
N3692     Co3725   2.124   1_565  S
N3693      N3711   1.321       .  A
N3693      N3729   1.341       .  A
N3694      C3723   1.346       .  A
N3694      N3704   1.310       .  A
H3695      C3720   1.082       .  S
N3696      N3717   1.318       .  A
N3697      N3715   1.319       .  A
N3697      N3702   1.329       .  A
C3698      N3702   1.358       .  A
C3698      C3726   1.472       .  S
N3699      C3714   1.337       .  A
C3700      N3728   1.356       .  A
C3700      C3703   1.482       .  S
C3700      H3734   1.080       .  S
C3703      N3724   1.354       .  A
N3704      N3710   1.319       .  A
N3705      C3731   1.341       .  A
N3705      N3707   1.318       .  A
N3705     Co3721   2.086       .  S
N3706      C3720   1.354       .  A
N3707      N3735   1.336       .  A
H3708      C3731   1.082       .  S
H3709      C3726   1.082       .  S
N3711     Co3725   2.122   1_565  S
N3712      N3724   1.321       .  A
N3712      N3728   1.318       .  A
N3712     Co3721   2.088       .  S
C3713      N3717   1.354       .  A
C3713      C3727   1.476       .  S
C3714      C3733   1.458       .  S
C3714      H3718   1.082       .  S
N3715      C3726   1.337       .  A
C3719      N3735   1.363       .  A
C3719      C3731   1.463       .  S
Co3721    Cl3732   2.430       .  S
N3722      C3733   1.359       .  A
C3736      H3743   1.084       .  S
C3736      C3737   1.406       .  A
C3736      C3741   1.412       .  A
C3737      C3738   1.423       .  A
C3738      C3739   1.386       .  A
C3738      C3745   1.511       .  S
C3739      H3744   1.076       .  S
C3739      C3740   1.393       .  A
C3740      C3741   1.412       .  A
C3741      C3742   1.502       .  S
C3742      H3746   1.108       .  S
C3742      H3747   1.109       .  S
C3742      H3748   1.107       .  S
C3745      H3749   1.105       .  S
C3745      H3750   1.101       .  S
C3745      H3751   1.108       .  S
C3752      H3759   1.078       .  S
C3752      C3753   1.415       .  A
C3752      C3757   1.395       .  A
C3753      C3754   1.430       .  A
C3754      C3755   1.408       .  A
C3754      C3761   1.507       .  S
C3755      H3760   1.084       .  S
C3755      C3756   1.407       .  A
C3756      C3757   1.406       .  A
C3757      C3758   1.503       .  S
C3758      H3762   1.106       .  S
C3758      H3763   1.108       .  S
C3758      H3764   1.111       .  S
C3761      H3765   1.111       .  S
C3761      H3766   1.095       .  S
C3761      H3767   1.111       .  S
C3768      H3775   1.084       .  S
C3768      C3769   1.398       .  A
C3768      C3773   1.386       .  A
C3769      C3770   1.413       .  A
C3770      C3771   1.405       .  A
C3770      C3777   1.506       .  S
C3771      H3776   1.083       .  S
C3771      C3772   1.413       .  A
C3772      C3773   1.423       .  A
C3773      C3774   1.500       .  S
C3774      H3778   1.108       .  S
C3774      H3779   1.110       .  S
C3774      H3780   1.091       .  S
C3777      H3781   1.108       .  S
C3777      H3782   1.109       .  S
C3777      H3783   1.111       .  S
C3784      H3791   1.085       .  S
C3784      C3785   1.401       .  A
C3784      C3789   1.404       .  A
C3785      C3786   1.415       .  A
C3786      C3787   1.399       .  A
C3786      C3793   1.509       .  S
C3787      H3792   1.083       .  S
C3787      C3788   1.398       .  A
C3788      C3789   1.423       .  A
C3789      C3790   1.506       .  S
C3790      H3794   1.110       .  S
C3790      H3795   1.105       .  S
C3790      H3796   1.103       .  S
C3793      H3797   1.109       .  S
C3793      H3798   1.109       .  S
C3793      H3799   1.111       .  S
C3800      H3807   1.084       .  S
C3800      C3801   1.409       .  A
C3800      C3805   1.402       .  A
C3801      C3802   1.409       .  A
C3802      C3803   1.403       .  A
C3802      C3809   1.502       .  S
C3803      H3808   1.085       .  S
C3803      C3804   1.407       .  A
C3804      C3805   1.410       .  A
C3805      C3806   1.507       .  S
C3806      H3810   1.110       .  S
C3806      H3811   1.110       .  S
C3806      H3812   1.109       .  S
C3809      H3813   1.109       .  S
C3809      H3814   1.110       .  S
C3809      H3815   1.110       .  S
C3816      H3823   1.084       .  S
C3816      C3817   1.410       .  A
C3816      C3821   1.408       .  A
C3817      C3818   1.416       .  A
C3818      C3819   1.403       .  A
C3818      C3825   1.501       .  S
C3819      H3824   1.085       .  S
C3819      C3820   1.401       .  A
C3820      C3821   1.412       .  A
C3821      C3822   1.506       .  S
C3822      H3826   1.111       .  S
C3822      H3827   1.110       .  S
C3822      H3828   1.111       .  S
C3825      H3829   1.109       .  S
C3825      H3830   1.107       .  S
C3825      H3831   1.105       .  S
C3832      H3839   1.085       .  S
C3832      C3833   1.393       .  A
C3832      C3837   1.390       .  A
C3833      C3834   1.412       .  A
C3834      C3835   1.411       .  A
C3834      C3841   1.507       .  S
C3835      H3840   1.082       .  S
C3835      C3836   1.405       .  A
C3836      C3837   1.421       .  A
C3837      C3838   1.511       .  S
C3838      H3842   1.111       .  S
C3838      H3843   1.103       .  S
C3838      H3844   1.109       .  S
C3841      H3845   1.109       .  S
C3841      H3846   1.109       .  S
C3841      H3847   1.110       .  S
C3848      H3855   1.086       .  S
C3848      C3849   1.391       .  A
C3848      C3853   1.380       .  A
C3849      C3850   1.406       .  A
C3850      C3851   1.410       .  A
C3850      C3857   1.496       .  S
C3851      H3856   1.084       .  S
C3851      C3852   1.407       .  A
C3852      C3853   1.426       .  A
C3853      C3854   1.511       .  S
C3854      H3858   1.111       .  S
C3854      H3859   1.103       .  S
C3854      H3860   1.101       .  S
C3857      H3861   1.110       .  S
C3857      H3862   1.107       .  S
C3857      H3863   1.110       .  S
C3864      H3871   1.059       .  S
C3864      C3865   1.403       .  A
C3864      C3869   1.389       .  A
C3865      C3866   1.415       .  A
C3866      C3867   1.422       .  A
C3866      C3873   1.506       .  S
C3867      H3872   1.081       .  S
C3867      C3868   1.416       .  A
C3868      C3869   1.402       .  A
C3869      C3870   1.511       .  S
C3870      H3874   1.111       .  S
C3870      H3875   1.108       .  S
C3870      H3876   1.108       .  S
C3873      H3877   1.107       .  S
C3873      H3878   1.110       .  S
C3873      H3879   1.110       .  S
C3880      H3887   1.083       .  S
C3880      C3881   1.407       .  A
C3880      C3885   1.399       .  A
C3881      C3882   1.408       .  A
C3882      C3883   1.391       .  A
C3882      C3889   1.503       .  S
C3883      H3888   1.085       .  S
C3883      C3884   1.402       .  A
C3884      C3885   1.405       .  A
C3885      C3886   1.506       .  S
C3886      H3890   1.107       .  S
C3886      H3891   1.111       .  S
C3886      H3892   1.109       .  S
C3889      H3893   1.110       .  S
C3889      H3894   1.104       .  S
C3889      H3895   1.109       .  S
C3896      H3903   1.082       .  S
C3896      C3897   1.398       .  A
C3896      C3901   1.386       .  A
C3897      C3898   1.415       .  A
C3898      C3899   1.413       .  A
C3898      C3905   1.503       .  S
C3899      H3904   1.084       .  S
C3899      C3900   1.407       .  A
C3900      C3901   1.417       .  A
C3901      C3902   1.511       .  S
C3902      H3906   1.111       .  S
C3902      H3907   1.108       .  S
C3902      H3908   1.101       .  S
C3905      H3909   1.109       .  S
C3905      H3910   1.107       .  S
C3905      H3911   1.111       .  S
C3912      H3919   1.085       .  S
C3912      C3913   1.411       .  A
C3912      C3917   1.403       .  A
C3913      C3914   1.407       .  A
C3914      C3915   1.393       .  A
C3914      C3921   1.497       .  S
C3915      H3920   1.085       .  S
C3915      C3916   1.404       .  A
C3916      C3917   1.412       .  A
C3917      C3918   1.507       .  S
C3918      H3922   1.109       .  S
C3918      H3923   1.109       .  S
C3918      H3924   1.110       .  S
C3921      H3925   1.111       .  S
C3921      H3926   1.106       .  S
C3921      H3927   1.110       .  S
C3928      N3946   1.358       .  A
C3928      C3965   1.462       .  S
C3928      C4113   1.493       .  S
N3929      N3946   1.323       .  A
N3929      N3951   1.319       .  A
C3930      N3955   1.365       .  A
C3930      C3968   1.483       .  S
C3930      H3975   1.081       .  S
H3931      C3972   1.081       .  S
C3932      N3956   1.330       .  A
C3932      C3936   1.467       .  S
C3932      H3961   1.082       .  S
Co3933     N3973   2.098       .  S
Co3933     N3949   2.070       .  S
N3934      C3972   1.363       .  A
N3934      N3941   1.317       .  A
N3934     Co3935   2.114       .  S
Co3935     N3938   2.112       .  S
Co3935    Cl3977   2.491       .  S
C3936      N3974   1.359       .  A
C3936      C4104   1.502       .  S
N3937      N3944   1.321       .  A
N3937      N3967   1.337       .  A
N3937     Co3970   2.137       .  S
N3938      N3956   1.325       .  A
N3938      N3974   1.337       .  A
N3939      C3968   1.344       .  A
N3939      N3949   1.309       .  A
H3940      C3965   1.081       .  S
N3941      N3962   1.311       .  A
N3942      N3960   1.317       .  A
N3942      N3947   1.327       .  A
C3943      N3947   1.358       .  A
C3943      C3971   1.468       .  S
C3943      C4135   1.475       .  S
N3944      C3959   1.340       .  A
C3945      N3973   1.350       .  A
C3945      C3948   1.472       .  S
C3945      H3979   1.081       .  S
C3948      N3969   1.353       .  A
C3948      C4122   1.483       .  S
N3949      N3955   1.319       .  A
N3950      C3976   1.341       .  A
N3950      N3952   1.316       .  A
N3950     Co3966   2.100       .  S
N3951      C3965   1.350       .  A
N3952      N3980   1.333       .  A
H3953      C3976   1.082       .  S
H3954      C3971   1.082       .  S
N3956     Co3970   2.107       .  S
N3957      N3969   1.321       .  A
N3957      N3973   1.316       .  A
N3957     Co3966   2.088       .  S
C3958      N3962   1.348       .  A
C3958      C3972   1.478       .  S
C3958      C3990   1.500       .  S
C3959      C3978   1.462       .  S
C3959      H3963   1.082       .  S
N3960      C3971   1.332       .  A
C3964      N3980   1.362       .  A
C3964      C3976   1.474       .  S
C3964      C4003   1.497       .  S
N3967      C3978   1.364       .  A
C3968      C4012   1.503       .  S
Co3970    Cl3977   2.447       .  S
C3978      C3981   1.504       .  S
C3981      C3982   1.416       .  A
C3981      C3986   1.420       .  A
C3982      H3987   1.083       .  S
C3982      C3983   1.409       .  A
C3983      C4477   1.484       .  S
C3983      C3984   1.386       .  A
C3984      H3988   1.087       .  S
C3984      C3985   1.395       .  A
C3985      C4081   1.478       .  S
C3985      C3986   1.420       .  A
C3986      H3989   1.083       .  S
C3990      C3991   1.409       .  A
C3990      C3995   1.427       .  A
C3991      H3996   1.085       .  S
C3991      C3992   1.383       .  A
C3992      C4461   1.480       .  S
C3992      C3993   1.391       .  A
C3993      H3997   1.083       .  S
C3993      C3994   1.413       .  A
C3994      C4091   1.499       .  S
C3994      C3995   1.430       .  A
C3995      H3998   1.082       .  S
C3999      C4101   1.492       .  S
C3999      C4000   1.392       .  A
C3999      C4004   1.431       .  A
C4000      H4005   1.087       .  S
C4000      C4001   1.384       .  A
C4001      C4445   1.457       .  S
C4001      C4002   1.388       .  A
C4002      H4006   1.085       .  S
C4002      C4003   1.402       .  A
C4003      C4004   1.432       .  A
C4004      H4007   1.082       .  S
C4008      C4087   1.510       .  S
C4008      C4009   1.421       .  A
C4008      C4013   1.430       .  A
C4009      H4014   1.079       .  S
C4009      C4010   1.400       .  A
C4010      C4426   1.496       .  S
C4010      C4011   1.391       .  A
C4011      H4015   1.085       .  S
C4011      C4012   1.410       .  A
C4012      C4013   1.425       .  A
C4013      H4016   1.082       .  S
N4017      C4022   1.349       .  A
N4017      H4049   1.038       .  S
N4018      C4026   1.342       .  A
N4019      C4024   1.351       .  A
N4019      H4050   1.040       .  S
N4020      C4028   1.350       .  A
C4021      C4029   1.381       .  A
C4021      C4037   1.410       .  A
C4022      C4038   1.424       .  A
C4022      C4030   1.393       .  A
C4023      C4031   1.380       .  A
C4023      C4040   1.406       .  A
C4024      C4039   1.425       .  A
C4024      C4032   1.396       .  A
C4025      C4037   1.398       .  A
C4025      C4033   1.380       .  A
C4026      C4040   1.395       .  A
C4026      C4034   1.387       .  A
C4027      C4035   1.384       .  A
C4027      C4038   1.421       .  A
C4028      C4036   1.387       .  A
C4028      C4039   1.416       .  A
C4029      H4041   1.082       .  S
C4030      H4042   1.077       .  S
C4031      H4043   1.083       .  S
C4032      H4044   1.080       .  S
C4033      H4045   1.080       .  S
C4034      H4046   1.077       .  S
C4035      H4047   1.082       .  S
C4036      H4048   1.082       .  S
C4037      C4442   1.478       .  S
C4038      C4429   1.493       .  S
C4039      C4458   1.487       .  S
C4040      C4474   1.495       .  S
C4051      N4069   1.353       .  A
C4051      C4088   1.482       .  S
C4051      C4192   1.502       .  S
N4052      N4069   1.323       .  A
N4052      N4074   1.317       .  A
C4053      N4078   1.358       .  A
C4053      C4091   1.476       .  S
C4053      H4098   1.081       .  S
H4054      C4095   1.075       .  S
C4055      N4079   1.332       .  A
C4055      C4059   1.467       .  S
C4055      H4084   1.080       .  S
Co4056     N4096   2.092   1_455  S
Co4056     N4072   2.103   1_455  S
Co4056    Cl4100   2.447       .  S
N4057      C4095   1.345       .  A
N4057      N4064   1.319       .  A
Co4058     N4078   2.111   1_455  S
Co4058     N4065   2.131   1_455  S
Co4058    Cl4100   2.503       .  S
C4059      N4097   1.359       .  A
C4059      C4174   1.482       .  S
N4060      N4067   1.315       .  A
N4060      N4090   1.331       .  A
N4061      N4079   1.318       .  A
N4061      N4097   1.331       .  A
N4062      C4091   1.349       .  A
N4062      N4072   1.319       .  A
H4063      C4088   1.081       .  S
N4064      N4085   1.320       .  A
N4065      N4083   1.320       .  A
N4065      N4070   1.344       .  A
C4066      N4070   1.368       .  A
C4066      C4094   1.465       .  S
C4066      C4205   1.518       .  S
N4067      C4082   1.345       .  A
C4068      N4096   1.351       .  A
C4068      C4071   1.466       .  S
C4068      H4102   1.081       .  S
C4071      N4092   1.356       .  A
C4071      C4187   1.488       .  S
N4072      N4078   1.323       .  A
N4073      C4099   1.335       .  A
N4073      N4075   1.318       .  A
N4073     Co4089   2.085   1_655  S
N4074      C4088   1.357       .  A
N4075      N4103   1.339       .  A
N4075     Co4093   2.131   1_655  S
H4076      C4099   1.080       .  S
H4077      C4094   1.079       .  S
N4080      N4092   1.324       .  A
N4080      N4096   1.319       .  A
N4080     Co4089   2.115   1_655  S
C4081      N4085   1.357       .  A
C4081      C4095   1.470       .  S
C4082      C4101   1.481       .  S
C4082      H4086   1.082       .  S
N4083      C4094   1.323       .  A
N4083     Co4093   2.082   1_655  S
C4087      N4103   1.366       .  A
C4087      C4099   1.463       .  S
Co4089    Cl4100   2.446       .  S
N4090      C4101   1.359       .  A
Co4093    Cl4100   2.436       .  S
C4104      C4105   1.408       .  A
C4104      C4109   1.435       .  A
C4105      H4110   1.082       .  S
C4105      C4106   1.382       .  A
C4106      C4413   1.478       .  S
C4106      C4107   1.384       .  A
C4107      H4111   1.085       .  S
C4107      C4108   1.408       .  A
C4108      C4274   1.502       .  S
C4108      C4109   1.434       .  A
C4109      H4112   1.082       .  S
C4113      C4114   1.407       .  A
C4113      C4118   1.435       .  A
C4114      H4119   1.084       .  S
C4114      C4115   1.387       .  A
C4115      C4397   1.478       .  S
C4115      C4116   1.386       .  A
C4116      H4120   1.084       .  S
C4116      C4117   1.405       .  A
C4117      C4284   1.503       .  S
C4117      C4118   1.429       .  A
C4118      H4121   1.083       .  S
C4122      C4123   1.402       .  A
C4122      C4127   1.418       .  A
C4123      H4128   1.086       .  S
C4123      C4124   1.391       .  A
C4124      C4381   1.486       .  S
C4124      C4125   1.405       .  A
C4125      H4129   1.084       .  S
C4125      C4126   1.416       .  A
C4126      C4280   1.500       .  S
C4126      C4127   1.419       .  A
C4127      H4130   1.083       .  S
C4131      C4294   1.482       .  S
C4131      C4132   1.409       .  A
C4131      C4136   1.413       .  A
C4132      H4137   1.083       .  S
C4132      C4133   1.402       .  A
C4133      C4365   1.477       .  S
C4133      C4134   1.389       .  A
C4134      H4138   1.086       .  S
C4134      C4135   1.401       .  A
C4135      C4136   1.410       .  A
C4136      H4139   1.083       .  S
N4140      C4144   1.362       .  A
N4140      H4172   1.040       .  S
N4141      C4149   1.344       .  A
N4142      C4146   1.356       .  A
N4142      H4173   1.042       .  S
N4143      C4151   1.343       .  A
C4144      C4152   1.381       .  A
C4144      C4160   1.418       .  A
C4145      C4161   1.416   1_554  A
C4145      C4153   1.393       .  A
C4146      C4154   1.390       .  A
C4146      C4163   1.417       .  A
C4147      C4162   1.411   1_554  A
C4147      C4155   1.381       .  A
C4148      C4160   1.413       .  A
C4148      C4156   1.385       .  A
C4149      C4163   1.413       .  A
C4149      C4157   1.390       .  A
C4150      C4158   1.384       .  A
C4150      C4161   1.400       .  A
C4151      C4159   1.391       .  A
C4151      C4162   1.407       .  A
C4152      H4164   1.082       .  S
C4153      H4165   1.077       .  S
C4154      H4166   1.082       .  S
C4155      H4167   1.083       .  S
C4156      H4168   1.081       .  S
C4157      H4169   1.083       .  S
C4158      H4170   1.081       .  S
C4159      H4171   1.080       .  S
C4160      C4394   1.480       .  S
C4161      C4378   1.493       .  S
C4162      C4362   1.485       .  S
C4163      C4410   1.479       .  S
C4174      C4175   1.398       .  A
C4174      C4179   1.423       .  A
C4175      H4180   1.086       .  S
C4175      C4176   1.383       .  A
C4176      C4346   1.469       .  S
C4176      C4177   1.392       .  A
C4177      H4181   1.084       .  S
C4177      C4178   1.406       .  A
C4178      C4244   1.492       .  S
C4178      C4179   1.423       .  A
C4179      H4182   1.083       .  S
C4183      C4259   1.490       .  S
C4183      C4184   1.395       .  A
C4183      C4188   1.424       .  A
C4184      H4189   1.085       .  S
C4184      C4185   1.389       .  A
C4185      C4330   1.481       .  S
C4185      C4186   1.392       .  A
C4186      H4190   1.083       .  S
C4186      C4187   1.403       .  A
C4187      C4188   1.427       .  A
C4188      H4191   1.083       .  S
C4192      C4193   1.422       .  A
C4192      C4197   1.409       .  A
C4193      H4198   1.082       .  S
C4193      C4194   1.420       .  A
C4194      C4264   1.505       .  S
C4194      C4195   1.407       .  A
C4195      H4199   1.074       .  S
C4195      C4196   1.414       .  A
C4196      C4317   1.537       .  S
C4196      C4197   1.408       .  A
C4197      H4200   1.070       .  S
C4201      C4252   1.516       .  S
C4201      C4202   1.406       .  A
C4201      C4206   1.445       .  A
C4202      H4207   1.084       .  S
C4202      C4203   1.381       .  A
C4203      C4298   1.484       .  S
C4203      C4204   1.377       .  A
C4204      H4208   1.075       .  S
C4204      C4205   1.414       .  A
C4205      C4206   1.445       .  A
C4206      H4209   1.082       .  S
N4210      C4215   1.349   1_545  A
N4210      H4242   1.045       .  S
N4211      C4218   1.349       .  A
N4212      C4217   1.359       .  A
N4212      H4243   1.040       .  S
N4213      C4220   1.356       .  A
C4214      C4222   1.382       .  A
C4214      C4230   1.409       .  A
C4215      C4231   1.414       .  A
C4215      C4223   1.382       .  A
C4216      C4224   1.374       .  A
C4216      C4233   1.403       .  A
C4217      C4232   1.419       .  A
C4217      C4225   1.383       .  A
C4218      C4230   1.401       .  A
C4218      C4226   1.377       .  A
C4219      C4233   1.421       .  A
C4219      C4227   1.397       .  A
C4220      C4228   1.373       .  A
C4220      C4231   1.403       .  A
C4221      C4229   1.392       .  A
C4221      C4232   1.419       .  A
C4222      H4234   1.082       .  S
C4223      H4235   1.082       .  S
C4224      H4236   1.073       .  S
C4225      H4237   1.071       .  S
C4226      H4238   1.082       .  S
C4227      H4239   1.079       .  S
C4228      H4240   1.082       .  S
C4229      H4241   1.074       .  S
C4230      C4333   1.498       .  S
C4231      C4301   1.477       .  S
C4232      C4349   1.483       .  S
C4233      C4314   1.527       .  S
C4244      N4262   1.355       .  A
C4244      C4281   1.468       .  S
N4245      N4262   1.322       .  A
N4245      N4267   1.318       .  A
C4246      N4271   1.363       .  A
C4246      C4284   1.479       .  S
C4246      H4291   1.076       .  S
H4247      C4288   1.081       .  S
C4248      N4272   1.322       .  A
C4248      C4252   1.468       .  S
C4248      H4277   1.081       .  S
Co4249     N4289   2.141       .  S
Co4249     N4265   2.071       .  S
Co4249    Cl4293   2.480       .  S
N4250      C4288   1.362       .  A
N4250      N4257   1.319       .  A
Co4251     N4271   2.138       .  S
Co4251     N4258   2.117       .  S
Co4251    Cl4293   2.467       .  S
C4252      N4290   1.363       .  A
N4253      N4260   1.321       .  A
N4253      N4283   1.329       .  A
N4253     Co4286   2.102   1_565  S
N4254      N4272   1.322       .  A
N4254      N4290   1.343       .  A
N4255      C4284   1.348       .  A
N4255      N4265   1.313       .  A
H4256      C4281   1.082       .  S
N4257      N4278   1.316       .  A
N4258      N4276   1.319       .  A
N4258      N4263   1.331       .  A
C4259      N4263   1.359       .  A
C4259      C4287   1.478       .  S
N4260      C4275   1.340       .  A
C4261      N4289   1.357       .  A
C4261      C4264   1.486       .  S
C4261      H4295   1.078       .  S
C4264      N4285   1.352       .  A
N4265      N4271   1.320       .  A
N4266      C4292   1.339       .  A
N4266      N4268   1.318       .  A
N4266     Co4282   2.084       .  S
N4267      C4281   1.351       .  A
N4268      N4296   1.335       .  A
H4269      C4292   1.082       .  S
H4270      C4287   1.082       .  S
N4272     Co4286   2.090   1_565  S
N4273      N4285   1.322       .  A
N4273      N4289   1.318       .  A
N4273     Co4282   2.084       .  S
C4274      N4278   1.351       .  A
C4274      C4288   1.477       .  S
C4275      C4294   1.463       .  S
C4275      H4279   1.082       .  S
N4276      C4287   1.340       .  A
C4280      N4296   1.361       .  A
C4280      C4292   1.462       .  S
Co4282    Cl4293   2.437       .  S
N4283      C4294   1.354       .  A
C4297      H4304   1.084       .  S
C4297      C4298   1.404       .  A
C4297      C4302   1.410       .  A
C4298      C4299   1.424       .  A
C4299      C4300   1.389       .  A
C4299      C4306   1.511       .  S
C4300      H4305   1.084       .  S
C4300      C4301   1.393       .  A
C4301      C4302   1.412       .  A
C4302      C4303   1.502       .  S
C4303      H4307   1.107       .  S
C4303      H4308   1.110       .  S
C4303      H4309   1.110       .  S
C4306      H4310   1.091       .  S
C4306      H4311   1.109       .  S
C4306      H4312   1.107       .  S
C4313      H4320   1.083       .  S
C4313      C4314   1.409       .  A
C4313      C4318   1.412       .  A
C4314      C4315   1.426       .  A
C4315      C4316   1.402       .  A
C4315      C4322   1.514       .  S
C4316      H4321   1.079       .  S
C4316      C4317   1.414       .  A
C4317      C4318   1.436       .  A
C4318      C4319   1.510       .  S
C4319      H4323   1.111       .  S
C4319      H4324   1.104       .  S
C4319      H4325   1.109       .  S
C4322      H4326   1.110       .  S
C4322      H4327   1.101       .  S
C4322      H4328   1.112       .  S
C4329      H4336   1.085       .  S
C4329      C4330   1.400       .  A
C4329      C4334   1.401       .  A
C4330      C4331   1.417       .  A
C4331      C4332   1.396       .  A
C4331      C4338   1.510       .  S
C4332      H4337   1.080       .  S
C4332      C4333   1.404       .  A
C4333      C4334   1.421       .  A
C4334      C4335   1.501       .  S
C4335      H4339   1.107       .  S
C4335      H4340   1.101       .  S
C4335      H4341   1.108       .  S
C4338      H4342   1.108       .  S
C4338      H4343   1.107       .  S
C4338      H4344   1.106       .  S
C4345      H4352   1.085       .  S
C4345      C4346   1.397       .  A
C4345      C4350   1.399       .  A
C4346      C4347   1.416       .  A
C4347      C4348   1.396       .  A
C4347      C4354   1.510       .  S
C4348      H4353   1.081       .  S
C4348      C4349   1.396       .  A
C4349      C4350   1.424       .  A
C4350      C4351   1.507       .  S
C4351      H4355   1.110       .  S
C4351      H4356   1.103       .  S
C4351      H4357   1.105       .  S
C4354      H4358   1.109       .  S
C4354      H4359   1.109       .  S
C4354      H4360   1.111       .  S
C4361      H4368   1.085   1_556  S
C4361      C4362   1.409       .  A
C4361      C4366   1.401       .  A
C4362      C4363   1.410       .  A
C4363      C4364   1.403       .  A
C4363      C4370   1.502       .  S
C4364      H4369   1.085       .  S
C4364      C4365   1.407       .  A
C4365      C4366   1.408       .  A
C4366      C4367   1.506       .  S
C4367      H4371   1.111   1_556  S
C4367      H4372   1.110       .  S
C4367      H4373   1.109       .  S
C4370      H4374   1.108       .  S
C4370      H4375   1.109       .  S
C4370      H4376   1.110       .  S
C4377      H4384   1.084   1_556  S
C4377      C4378   1.410       .  A
C4377      C4382   1.411       .  A
C4378      C4379   1.415       .  A
C4379      C4380   1.401       .  A
C4379      C4386   1.497       .  S
C4380      H4385   1.085       .  S
C4380      C4381   1.398       .  A
C4381      C4382   1.412       .  A
C4382      C4383   1.505       .  S
C4383      H4387   1.110   1_556  S
C4383      H4388   1.109       .  S
C4383      H4389   1.111       .  S
C4386      H4390   1.105       .  S
C4386      H4391   1.108       .  S
C4386      H4392   1.101       .  S
C4393      H4400   1.085       .  S
C4393      C4394   1.392       .  A
C4393      C4398   1.390       .  A
C4394      C4395   1.409       .  A
C4395      C4396   1.408       .  A
C4395      C4402   1.507       .  S
C4396      H4401   1.081       .  S
C4396      C4397   1.404       .  A
C4397      C4398   1.423       .  A
C4398      C4399   1.512       .  S
C4399      H4403   1.111       .  S
C4399      H4404   1.102       .  S
C4399      H4405   1.109       .  S
C4402      H4406   1.108       .  S
C4402      H4407   1.108       .  S
C4402      H4408   1.108       .  S
C4409      H4416   1.085       .  S
C4409      C4410   1.392       .  A
C4409      C4414   1.381       .  A
C4410      C4411   1.404       .  A
C4411      C4412   1.410       .  A
C4411      C4418   1.494       .  S
C4412      H4417   1.084       .  S
C4412      C4413   1.406       .  A
C4413      C4414   1.424       .  A
C4414      C4415   1.510       .  S
C4415      H4419   1.110       .  S
C4415      H4420   1.104       .  S
C4415      H4421   1.101       .  S
C4418      H4422   1.110       .  S
C4418      H4423   1.107       .  S
C4418      H4424   1.109       .  S
C4425      H4432   1.075       .  S
C4425      C4426   1.402       .  A
C4425      C4430   1.388       .  A
C4426      C4427   1.413       .  A
C4427      C4428   1.418       .  A
C4427      C4434   1.502       .  S
C4428      H4433   1.082       .  S
C4428      C4429   1.412       .  A
C4429      C4430   1.409       .  A
C4430      C4431   1.508       .  S
C4431      H4435   1.111       .  S
C4431      H4436   1.109       .  S
C4431      H4437   1.109       .  S
C4434      H4438   1.106       .  S
C4434      H4439   1.110       .  S
C4434      H4440   1.111       .  S
C4441      H4448   1.083       .  S
C4441      C4442   1.409       .  A
C4441      C4446   1.398       .  A
C4442      C4443   1.406       .  A
C4443      C4444   1.389       .  A
C4443      C4450   1.495       .  S
C4444      H4449   1.086       .  S
C4444      C4445   1.401       .  A
C4445      C4446   1.401       .  A
C4446      C4447   1.504       .  S
C4447      H4451   1.110       .  S
C4447      H4452   1.108       .  S
C4447      H4453   1.107       .  S
C4450      H4454   1.105       .  S
C4450      H4455   1.106       .  S
C4450      H4456   1.109       .  S
C4457      H4464   1.083       .  S
C4457      C4458   1.397       .  A
C4457      C4462   1.385       .  A
C4458      C4459   1.412       .  A
C4459      C4460   1.414       .  A
C4459      C4466   1.502       .  S
C4460      H4465   1.084       .  S
C4460      C4461   1.408       .  A
C4461      C4462   1.418       .  A
C4462      C4463   1.512       .  S
C4463      H4467   1.111       .  S
C4463      H4468   1.109       .  S
C4463      H4469   1.099       .  S
C4466      H4470   1.109       .  S
C4466      H4471   1.103       .  S
C4466      H4472   1.111       .  S
C4473      H4480   1.085       .  S
C4473      C4474   1.409       .  A
C4473      C4478   1.405       .  A
C4474      C4475   1.406       .  A
C4475      C4476   1.397       .  A
C4475      C4482   1.493       .  S
C4476      H4481   1.085       .  S
C4476      C4477   1.404       .  A
C4477      C4478   1.418       .  A
C4478      C4479   1.507       .  S
C4479      H4483   1.110       .  S
C4479      H4484   1.107       .  S
C4479      H4485   1.111       .  S
C4482      H4486   1.109       .  S
C4482      H4487   1.107       .  S
C4482      H4488   1.108       .  S
