geometry optimzed in LAMMPS
_audit_creation_date              2020-11-30 
_audit_creation_method            'lammps2cif' 
_symmetry_space_group_name_H-M    'P1' 
_symmetry_Int_Tables_number       1 
_symmetry_cell_setting            triclinic 
loop_ 
_symmetry_equiv_pos_as_xyz 
  x,y,z 
_cell_length_a                    23.91356483 
_cell_length_b                    23.138038110635318 
_cell_length_c                    24.443298194654346 
_cell_angle_alpha                 90.94277135163752 
_cell_angle_beta                  89.13391353871006 
_cell_angle_gamma                 86.97338404864644 
loop_ 
_atom_site_label 
_atom_site_type_symbol 
_atom_site_fract_x 
_atom_site_fract_y 
_atom_site_fract_z 
_atom_site_charge 
O1          O  0.69228189  0.60725910  0.74550962    -0.80500
O2          O  0.71599370  0.86419334  0.69583088    -0.65200
O3          O  0.74697105  0.69554038  0.70095125    -1.11800
C4          C  0.78590063  0.75807844  0.88280559     1.06400
O5          O  0.80357770  0.85196659  0.71286434    -0.78400
O6          O  0.87417112  0.78228980  0.76948315    -0.65900
Ni7        Ni  0.69435189  0.64221428  0.67581841     1.34900
C8          C  0.88470105  0.72841385  0.76979902     0.85200
O9          O  0.70115250  0.77155608  0.61804128    -0.78900
O10         O  0.69351463  0.67510630  0.60522778    -0.89200
C11         C  0.76181716  0.88720339  0.70910449     0.84700
O12         O  0.62532549  0.68379728  0.69511476    -0.67400
O13         O  0.80642291  0.80151370  0.85944417    -0.86700
C14         C  0.61300738  0.73277558  0.71750070     0.85600
C15         C  0.69120000  0.72676984  0.58801912     1.07100
H16         H  0.71806336  0.78960632  0.79253254     0.38900
O17         O  0.74982482  0.77718046  0.76955808    -1.09300
O18         O  0.84565086  0.69252855  0.76977919    -0.66000
Ni19       Ni  0.76351452  0.69651882  0.77937710     1.26300
O20         O  0.64832787  0.77238817  0.72163568    -0.66200
O21         O  0.77299074  0.71044820  0.85807331    -0.78500
C22         C  0.73546861  0.58003447  0.76266444     0.84900
O23         O  0.77291188  0.61049413  0.78422292    -0.65700
Ni24       Ni  0.80694058  0.82716603  0.78577492     1.27400
Ni25       Ni  0.72586941  0.77750051  0.69461377     1.26100
H26         H  0.78162143  0.68760636  0.68070200     0.39500
O27         O  0.11102597  0.76482486  0.74972431    -0.80500
O28         O  0.37457869  0.76133455  0.73420319    -0.65200
O29         O  0.21955833  0.72284717  0.71832478    -1.11800
C30         C  0.25859353  0.67498621  0.89934202     1.06400
O31         O  0.38666058  0.68656435  0.79196774    -0.78400
O32         O  0.32693810  0.58638240  0.79651777    -0.65900
Ni33       Ni  0.16347564  0.77259015  0.68776941     1.34900
C34         C  0.28111739  0.57148557  0.77587009     0.85200
O35         O  0.30056316  0.76658370  0.64778012    -0.78900
O36         O  0.21029241  0.77665071  0.62225025    -0.89200
C37         C  0.40662817  0.72726605  0.76338053     0.84700
O38         O  0.18648043  0.84873379  0.71371782    -0.67400
O39         O  0.30575051  0.66658194  0.87431279    -0.86700
C40         C  0.23186757  0.86662625  0.73376642     0.85600
C41         C  0.26314653  0.77474664  0.61166560     1.07100
H42         H  0.29134247  0.75967896  0.82513994     0.38900
O43         O  0.28422116  0.73190671  0.79640380    -1.09300
O44         O  0.23829558  0.61108841  0.77188747    -0.66000
Ni45       Ni  0.21294237  0.69973362  0.79307677     1.26300
O46         O  0.27398498  0.83144328  0.74270886    -0.66200
O47         O  0.21363274  0.68365785  0.87173130    -0.78500
C48         C  0.09771860  0.71745694  0.77258087     0.84900
O49         O  0.13584808  0.67973922  0.78672192    -0.65700
Ni50       Ni  0.31137036  0.66258947  0.79742656     1.27400
Ni51       Ni  0.29406388  0.74989701  0.72371062     1.26100
H52         H  0.22192186  0.68803448  0.69581224     0.39500
N53         N  0.70453724  0.73844952  0.48614563    -0.03000
C54         C  0.67154087  0.73176936  0.53087629    -0.00500
C55         C  0.62254759  0.70781072  0.51429499    -0.23300
C56         C  0.62538684  0.70187908  0.45800074    -0.23500
C57         C  0.67630024  0.72193856  0.44150386    -0.00600
H58         H  0.59006798  0.69221418  0.54061626     0.13200
H59         H  0.59449771  0.68309240  0.43219132     0.13300
N60         N  0.99141675  0.73587253  0.76256524    -0.03000
C61         C  0.03667184  0.70716658  0.78493093    -0.00500
C62         C  0.01812364  0.66216338  0.81545931    -0.23300
C63         C  0.96050570  0.66244959  0.81103414    -0.23500
C64         C  0.94476252  0.70772038  0.77743132    -0.00600
H65         H  0.04376719  0.63178806  0.83778368     0.13200
H66         H  0.93305738  0.63347325  0.83122920     0.13300
N67         N  0.98892104  0.75458395  0.22482069    -0.03000
C68         C  0.03870900  0.72286205  0.21844038    -0.00500
C69         C  0.02811586  0.67196882  0.19057207    -0.23300
C70         C  0.97158467  0.67340405  0.17877706    -0.23500
C71         C  0.94832955  0.72493866  0.19993827    -0.00600
H72         H  0.05781462  0.63616694  0.18152201     0.13200
H73         H  0.94985248  0.63999686  0.15777862     0.13300
O74         O  0.95808867  0.81037839  0.44792204    -0.74000
O75         O  0.09897486  0.88006083  0.45361897    -0.74000
O76         O  0.03694764  0.82072843  0.52181438    -0.74100
O77         O  0.02266480  0.86815054  0.37696814    -0.74100
O78         O  0.97411850  0.94846260  0.40480280    -0.74100
O79         O  0.99629210  0.90311723  0.55409789    -0.74000
O80         O  0.05634303  0.96377141  0.48199031    -0.74000
O81         O  0.91754653  0.89293636  0.47994450    -0.74100
Ni82       Ni  0.03086196  0.84221400  0.44870176     1.25400
Ni83       Ni  0.98501800  0.93072960  0.48085277     1.25400
C84         C  0.91459130  0.84005942  0.46604171     0.88200
C85         C  0.10067715  0.93193467  0.47230858     0.88100
C86         C  0.01796252  0.85193075  0.56178365     0.88100
C87         C  0.99196173  0.91313300  0.36666528     0.88300
N88         N  0.26425093  0.80675378  0.51150274    -0.03000
C89         C  0.27908252  0.77504138  0.46548690    -0.00500
C90         C  0.31114614  0.72606222  0.47851400    -0.23300
C91         C  0.31353591  0.72503420  0.53433575    -0.23500
C92         C  0.28281718  0.77339903  0.55398186    -0.00600
H93         H  0.32692188  0.69204351  0.45055431     0.13200
H94         H  0.33095668  0.68960709  0.55818948     0.13300
O95         O  0.39893480  0.71690748  0.25256585    -0.80500
O96         O  0.13932660  0.71121624  0.21484805    -0.65200
O97         O  0.29101810  0.76002897  0.21852847    -1.11800
C98         C  0.25825099  0.78256273  0.40907456     1.06400
O99         O  0.10213520  0.77324934  0.27769230    -0.78400
O100        O  0.17538111  0.85382886  0.31056022    -0.65900
Ni101      Ni  0.35144257  0.71026599  0.19100786     1.34900
C102        C  0.21783289  0.87916947  0.29250016     0.85200
O103        O  0.21994359  0.72631932  0.13501614    -0.78900
O104        O  0.31016485  0.69730290  0.12745103    -0.89200
C105        C  0.09655903  0.73694502  0.23830668     0.84700
O106        O  0.32888922  0.64304503  0.22464056    -0.67400
O107        O  0.20567827  0.78498581  0.39970680    -0.86700
C108        C  0.28186418  0.62278557  0.23301316     0.85600
C109        C  0.26194953  0.70520603  0.10683266     1.07100
H110        H  0.22364305  0.70338132  0.30868810     0.38900
O111        O  0.21942652  0.74102089  0.29351015    -1.09300
O112        O  0.26608158  0.85330414  0.28521260    -0.66000
Ni113      Ni  0.29303661  0.77246161  0.29470642     1.26300
O114        O  0.23575685  0.65046828  0.22280347    -0.66200
O115        O  0.29548094  0.78025663  0.37169362    -0.78500
C116        C  0.40927248  0.76401321  0.27543305     0.84900
O117        O  0.36892601  0.79848337  0.29212279    -0.65700
Ni118      Ni  0.15895465  0.77881799  0.33490559     1.27400
Ni119      Ni  0.21647850  0.73322784  0.21495379     1.26100
H120        H  0.29124815  0.79627637  0.20010000     0.39500
O121        O  0.81710356  0.86575952  0.26003834    -0.80500
O122        O  0.78733965  0.62695384  0.17711224    -0.65200
O123        O  0.75340068  0.78663059  0.20929248    -1.11800
C124        C  0.69723834  0.71924844  0.38379919     1.06400
O125        O  0.70380219  0.61480700  0.21062179    -0.78400
O126        O  0.63046847  0.69357767  0.26177225    -0.65900
Ni127      Ni  0.80436655  0.84188588  0.18674332     1.34900
C128        C  0.62014266  0.74785730  0.26654387     0.85200
O129        O  0.78295528  0.72466275  0.11155186    -0.78900
O130        O  0.79082025  0.82129302  0.11280265    -0.89200
C131        C  0.75104936  0.59328847  0.19366243     0.84700
O132        O  0.87488282  0.79717944  0.18553058    -0.67400
O133        O  0.68388975  0.67498667  0.35615559    -0.86700
C134        C  0.88765348  0.74455060  0.19581222     0.85600
C135        C  0.78355275  0.77399897  0.08754463     1.07100
H136        H  0.78655483  0.68245639  0.28521757     0.38900
O137        O  0.75324474  0.69693450  0.26691105    -1.09300
O138        O  0.65900955  0.78255808  0.27554511    -0.66000
Ni139      Ni  0.73996189  0.77606615  0.28650048     1.26300
O140        O  0.85049305  0.70815063  0.20391996    -0.66200
O141        O  0.72469464  0.76042745  0.36345789    -0.78500
C142        C  0.77718998  0.88728719  0.28970011     0.84900
O143        O  0.73557570  0.85766528  0.30210586    -0.65700
Ni144      Ni  0.69499155  0.64628912  0.28261704     1.27400
Ni145      Ni  0.77098142  0.70813236  0.18976944     1.26100
H146        H  0.71802883  0.79752256  0.19271347     0.39500
N147        N  0.79923551  0.75736614  0.98474284    -0.03000
C148        C  0.76883276  0.77027349  0.94016669    -0.00500
C149        C  0.72368032  0.80741628  0.95468691    -0.23300
C150        C  0.72428127  0.81380331  0.01083456    -0.23500
C151        C  0.77001884  0.78062452  0.02852237    -0.00600
H152        H  0.69353267  0.82757368  0.92740426     0.13200
H153        H  0.69390101  0.83870634  0.03609457     0.13300
N154        N  0.75937796  0.47089758  0.78329114    -0.03000
C155        C  0.74007854  0.51515693  0.75103087    -0.00500
C156        C  0.71262828  0.49125510  0.70731409    -0.23300
C157        C  0.71424532  0.43206085  0.71375639    -0.23500
C158        C  0.74259345  0.41979513  0.76146643    -0.00600
H159        H  0.69045976  0.51472585  0.67562762     0.13200
H160        H  0.69301960  0.40162431  0.68836151     0.13300
N161        N  0.73709093  0.26687684  0.04415016    -0.03000
C162        C  0.69982333  0.26735921  0.00242015    -0.00500
C163        C  0.64645529  0.28243158  0.02237364    -0.23300
C164        C  0.65067173  0.29219016  0.07728443    -0.23500
C165        C  0.70597754  0.28105763  0.09025977    -0.00600
H166        H  0.60841286  0.28787145  0.99914750     0.13200
H167        H  0.61623141  0.30348059  0.10531349     0.13300
O168        O  0.89785247  0.45275538  0.16034362    -0.74000
O169        O  0.84776931  0.46498195  0.02005810    -0.74000
O170        O  0.87741675  0.37688428  0.08526083    -0.74100
O171        O  0.86930630  0.53751952  0.10100299    -0.74100
O172        O  0.95308920  0.54486977  0.06223864    -0.74100
O173        O  0.96649579  0.37800232  0.05772496    -0.74000
O174        O  0.93520202  0.46348407  0.98744512    -0.74000
O175        O  0.98626417  0.46465734  0.13887034    -0.74100
Ni176      Ni  0.87070860  0.45757744  0.09270422     1.25400
Ni177      Ni  0.96480447  0.46221820  0.06119464     1.25400
C178        C  0.94692184  0.46171763  0.17507955     0.88200
C179        C  0.88195901  0.46786300  0.97994371     0.88100
C180        C  0.92106090  0.35131145  0.06388400     0.88100
C181        C  0.90423375  0.56644958  0.07548139     0.88300
N182        N  0.77633582  0.49585661  0.23048839    -0.03000
C183        C  0.75845754  0.52997861  0.18801650    -0.00500
C184        C  0.71253819  0.50639249  0.16378226    -0.23300
C185        C  0.69680579  0.46265657  0.19565652    -0.23500
C186        C  0.73529093  0.45826287  0.23677617    -0.00600
H187        H  0.68576658  0.52642060  0.13333259     0.13200
H188        H  0.65973690  0.43827785  0.19066601     0.13300
O189        O  0.72140453  0.11922804  0.28658999    -0.80500
O190        O  0.69802052  0.37632822  0.26989161    -0.65200
O191        O  0.76008974  0.22449972  0.25999920    -1.11800
C192        C  0.77896675  0.25983034  0.45071698     1.06400
O193        O  0.76970856  0.40845535  0.31408886    -0.78400
O194        O  0.85006394  0.33200070  0.35634878    -0.65900
Ni195      Ni  0.71918926  0.16743091  0.22354549     1.34900
C196        C  0.87787056  0.28565017  0.34033401     0.85200
O197        O  0.72017310  0.30466111  0.18354317    -0.78900
O198        O  0.71972289  0.21094022  0.15714272    -0.89200
C199        C  0.73253996  0.41419850  0.27783605     0.84700
O200        O  0.64096150  0.19453574  0.23944331    -0.67400
O201        O  0.77420680  0.31263525  0.43773147    -0.86700
C202        C  0.61928116  0.24393676  0.25511047     0.85600
C203        C  0.71908932  0.26483129  0.14672096     1.07100
H204        H  0.70182677  0.29295229  0.35586183     0.38900
O205        O  0.73818271  0.29518853  0.33840002    -1.09300
O206        O  0.85223415  0.23944002  0.32910683    -0.66000
Ni207      Ni  0.77226563  0.21897778  0.33755227     1.26300
O208        O  0.65003926  0.28417776  0.26965928    -0.66200
O209        O  0.78105732  0.21736620  0.41628665    -0.78500
C210        C  0.76645038  0.10238571  0.30993157     0.84900
O211        O  0.79739918  0.13928305  0.33179022    -0.65700
Ni212      Ni  0.77277202  0.35667477  0.37421525     1.27400
Ni213      Ni  0.72783129  0.30064870  0.26203184     1.26100
H214        H  0.79599497  0.22525660  0.24143178     0.39500
O215        O  0.88650464  0.18615416  0.81468081    -0.80500
O216        O  0.64971538  0.21649854  0.73974233    -0.65200
O217        O  0.80155595  0.24353939  0.76696619    -1.11800
C218        C  0.71140481  0.26348891  0.94232566     1.06400
O219        O  0.61145691  0.26347781  0.81389007    -0.78400
O220        O  0.69385066  0.33496753  0.77945984    -0.65900
Ni221      Ni  0.86035809  0.19325552  0.74227673     1.34900
C222        C  0.73749690  0.36210961  0.78950533     0.85200
O223        O  0.74136808  0.22740316  0.67433540    -0.78900
O224        O  0.83448545  0.20296157  0.66974408    -0.89200
C225        C  0.60820600  0.23079505  0.77126616     0.84700
O226        O  0.82673244  0.12096929  0.74857250    -0.67400
O227        O  0.66765574  0.26603285  0.91272833    -0.86700
C228        C  0.77723555  0.10411637  0.75171392     0.85600
C229        C  0.78829180  0.22140751  0.64914174     1.07100
H230        H  0.70624674  0.19737315  0.84247704     0.38900
O231        O  0.71658402  0.23289311  0.82551675    -1.09300
O232        O  0.77246261  0.34059068  0.82527375    -0.66000
Ni233      Ni  0.78728395  0.25515731  0.84342284     1.26300
O234        O  0.73477864  0.14048416  0.75262981    -0.66200
O235        O  0.76200217  0.26394701  0.92112529    -0.78500
C236        C  0.90227556  0.23127972  0.83852784     0.84900
O237        O  0.86536674  0.26914823  0.85741852    -0.65700
Ni238      Ni  0.67515132  0.29887431  0.84436756     1.27400
Ni239      Ni  0.72710595  0.22678759  0.75030639     1.26100
H240        H  0.80921219  0.28012249  0.75074718     0.39500
N241        N  0.74310575  0.99957244  0.73076111    -0.03000
C242        C  0.76922202  0.94582655  0.73682314    -0.00500
C243        C  0.81478095  0.95195607  0.77048600    -0.23300
C244        C  0.81776571  0.00928408  0.78375212    -0.23500
C245        C  0.77411160  0.03904307  0.75842431    -0.00600
H246        H  0.84498267  0.91830973  0.78243031     0.13200
H247        H  0.85120700  0.02786600  0.80639124     0.13300
N248        N  0.50649649  0.75241620  0.72996546    -0.03000
C249        C  0.46931895  0.73086613  0.76674968    -0.00500
C250        C  0.49855587  0.70089185  0.80677429    -0.23300
C251        C  0.55435563  0.70439591  0.79534190    -0.23500
C252        C  0.55883790  0.73678276  0.74882473    -0.00600
H253        H  0.48110852  0.67662091  0.83983726     0.13200
H254        H  0.58830151  0.68231827  0.81678642     0.13300
N255        N  0.24346941  0.97632465  0.71385504    -0.03000
C256        C  0.23621499  0.93107084  0.74857192    -0.00500
C257        C  0.23316601  0.95384820  0.80136801    -0.23300
C258        C  0.23755135  0.01375093  0.79828022    -0.23500
C259        C  0.24381135  0.02766709  0.74361873    -0.00600
H260        H  0.22704361  0.92979159  0.83837890     0.13200
H261        H  0.23451900  0.04411007  0.83247499     0.13300
O262        O  0.49604431  0.08424971  0.66162796    -0.74000
O263        O  0.34688623  0.07828474  0.61028464    -0.74000
O264        O  0.42346289  0.00391188  0.65505692    -0.74100
O265        O  0.42125552  0.16227941  0.61870807    -0.74100
O266        O  0.45582668  0.14009263  0.53560366    -0.74100
O267        O  0.46046346  0.97776654  0.57373960    -0.74000
O268        O  0.38036995  0.05038426  0.52785270    -0.74000
O269        O  0.52983110  0.06154697  0.57840954    -0.74100
Ni270      Ni  0.42016494  0.08374101  0.63877740     1.25400
Ni271      Ni  0.45680997  0.05742506  0.55004602     1.25400
C272        C  0.53684305  0.06690662  0.62979405     0.88200
C273        C  0.34011977  0.05491563  0.56319894     0.88100
C274        C  0.44925427  0.96619270  0.62385625     0.88100
C275        C  0.44401910  0.17761780  0.57421043     0.88300
N276        N  0.51396196  0.20912917  0.73154347    -0.03000
C277        C  0.47108871  0.17944896  0.75319410    -0.00500
C278        C  0.48938292  0.14848789  0.79799990    -0.23300
C279        C  0.54339936  0.16184067  0.80657449    -0.23500
C280        C  0.55763911  0.19877423  0.76566468    -0.00600
H281        H  0.46353136  0.12614654  0.82666242     0.13200
H282        H  0.56821024  0.14983021  0.84168903     0.13300
O283        O  0.39914710  0.23227711  0.79831565    -0.80500
O284        O  0.14517032  0.26276510  0.80819455    -0.65200
O285        O  0.29535759  0.21311018  0.79277305    -1.11800
C286        C  0.25666702  0.20471298  0.59874415     1.06400
O287        O  0.11657819  0.19241212  0.75209002    -0.78400
O288        O  0.19438934  0.11327087  0.70663164    -0.65900
Ni289      Ni  0.33161638  0.27231579  0.82430064     1.34900
C290        C  0.24157616  0.09106136  0.72236843     0.85200
O291        O  0.23247001  0.24404808  0.88558108    -0.78900
O292        O  0.32640472  0.23276835  0.89204757    -0.89200
C293        C  0.10744008  0.23010023  0.79097512     0.84700
O294        O  0.32646202  0.31642299  0.76073366    -0.67400
O295        O  0.20630289  0.19534400  0.61480019    -0.86700
C296        C  0.28194424  0.34868599  0.76537589     0.85600
C297        C  0.27747568  0.23184190  0.91459051     1.07100
H298        H  0.21799428  0.27147165  0.70744603     0.38900
O299        O  0.22108223  0.23336625  0.72296700    -1.09300
O300        O  0.28501132  0.12194436  0.72394161    -0.66000
Ni301      Ni  0.29770557  0.20641969  0.71540103     1.26300
O302        O  0.23950799  0.32668387  0.79014636    -0.66200
O303        O  0.29691592  0.20466316  0.63383838    -0.78500
C304        C  0.41241437  0.20160643  0.75513609     0.84900
O305        O  0.37790216  0.18793031  0.71735050    -0.65700
Ni306      Ni  0.16583081  0.19126754  0.68677657     1.27400
Ni307      Ni  0.22284124  0.24161553  0.80227870     1.26100
H308        H  0.30183253  0.17627065  0.81041073     0.39500
N309        N  0.23091733  0.69773915  0.00328597    -0.03000
C310        C  0.26079265  0.66986001  0.96037764    -0.00500
C311        C  0.30563920  0.63725853  0.97961591    -0.23300
C312        C  0.30521544  0.64390628  0.03415041    -0.23500
C313        C  0.26057576  0.68174577  0.04918436    -0.00600
H314        H  0.33706861  0.61179536  0.95601881     0.13200
H315        H  0.33692515  0.62445317  0.06029438     0.13300
N316        N  0.25332167  0.46273565  0.75857028    -0.03000
C317        C  0.28568536  0.50974433  0.75062498    -0.00500
C318        C  0.33753021  0.48884621  0.73074706    -0.23300
C319        C  0.33830842  0.42950493  0.72939711    -0.23500
C320        C  0.28698094  0.41267492  0.74862290    -0.00600
H321        H  0.37347537  0.51415979  0.72271854     0.13200
H322        H  0.37485762  0.40145832  0.71951581     0.13300
N323        N  0.26936086  0.24705076  0.02170341    -0.03000
C324        C  0.27484571  0.21283002  0.97477398    -0.00500
C325        C  0.28850411  0.15694901  0.98984787    -0.23300
C326        C  0.29032233  0.15657830  0.04636049    -0.23500
C327        C  0.27878551  0.21265302  0.06708538    -0.00600
H328        H  0.29776677  0.12024945  0.96258745     0.13200
H329        H  0.30113318  0.11855965  0.07000389     0.13300
O330        O  0.13082899  0.55223244  0.84643513    -0.74000
O331        O  0.18602257  0.56932256  0.98950279    -0.74000
O332        O  0.18426845  0.48336521  0.91896662    -0.74100
O333        O  0.13131175  0.64088033  0.91779763    -0.74100
O334        O  0.04830338  0.61888098  0.95074784    -0.74100
O335        O  0.10355040  0.45987121  0.95671348    -0.74000
O336        O  0.10349560  0.54807291  0.02478591    -0.74000
O337        O  0.04977229  0.52289997  0.87939869    -0.74100
Ni338      Ni  0.16040921  0.56299575  0.91656385     1.25400
Ni339      Ni  0.07248867  0.53746058  0.95356074     1.25400
C340        C  0.08486516  0.52750769  0.83969963     0.88200
C341        C  0.15625462  0.55393324  0.02998373     0.88100
C342        C  0.15481048  0.44698305  0.94375617     0.88100
C343        C  0.08280548  0.65687368  0.93640885     0.88300
N344        N  0.26431826  0.51663067  0.23353730    -0.03000
C345        C  0.28382001  0.56477522  0.25699882    -0.00500
C346        C  0.32128522  0.54954476  0.29743589    -0.23300
C347        C  0.32550139  0.49018979  0.29800633    -0.23500
C348        C  0.29160851  0.47069727  0.25701149    -0.00600
H349        H  0.34491466  0.57850823  0.32220343     0.13200
H350        H  0.34953742  0.46388608  0.32641469     0.13300
N351        N  0.51232091  0.75567795  0.24641081    -0.03000
C352        C  0.56016397  0.77124280  0.27290899    -0.00500
C353        C  0.54558555  0.80455052  0.31898158    -0.23300
C354        C  0.48832668  0.80882963  0.32294538    -0.23500
C355        C  0.46878653  0.77810341  0.27920952    -0.00600
H356        H  0.57394991  0.82032255  0.34923461     0.13200
H357        H  0.46366900  0.82879780  0.35634041     0.13300
N358        N  0.76881606  0.99506744  0.28286791    -0.03000
C359        C  0.77946408  0.03971876  0.31773723    -0.00500
C360        C  0.80188623  0.01821467  0.36538315    -0.23300
C361        C  0.80238540  0.95894252  0.36144940    -0.23500
C362        C  0.78137733  0.94614217  0.31091877    -0.00600
H363        H  0.81527755  0.04309531  0.39971507     0.13200
H364        H  0.81692244  0.92848528  0.39175145     0.13300
N365        N  0.23643399  0.98223052  0.25618815    -0.03000
C366        C  0.21113082  0.03529898  0.27012314    -0.00500
C367        C  0.16771190  0.02862835  0.30615616    -0.23300
C368        C  0.16473105  0.97112383  0.31521219    -0.23500
C369        C  0.20760193  0.94282864  0.28529840    -0.00600
H370        H  0.14343536  0.06335854  0.32642886     0.13200
H371        H  0.13597555  0.95203264  0.34345018     0.13300
O372        O  0.55988566  0.84251316  0.14232698    -0.74000
O373        O  0.54598115  0.00643464  0.16840784    -0.74000
O374        O  0.47678110  0.92077975  0.17002064    -0.74100
O375        O  0.63108963  0.92446199  0.14948428    -0.74100
O376        O  0.62197356  0.95294897  0.06361937    -0.74100
O377        O  0.45869948  0.93743523  0.08253298    -0.74000
O378        O  0.53091328  0.02053117  0.07944674    -0.74000
O379        O  0.54943947  0.85924539  0.05336621    -0.74100
Ni380      Ni  0.55398690  0.92278046  0.16034152     1.25400
Ni381      Ni  0.54016260  0.94142013  0.06559398     1.25400
C382        C  0.55513147  0.82411981  0.09289026     0.88200
C383        C  0.53597071  0.03995163  0.12751755     0.88100
C384        C  0.44197443  0.93446877  0.13318334     0.88100
C385        C  0.65053203  0.94945100  0.10832966     0.88300
N386        N  0.51390870  0.24423587  0.22387650    -0.03000
C387        C  0.55614442  0.25778965  0.25911401    -0.00500
C388        C  0.53288684  0.29258218  0.30116039    -0.23300
C389        C  0.47572913  0.29778429  0.29371384    -0.23500
C390        C  0.46437018  0.26672072  0.24686968    -0.00600
H391        H  0.55508834  0.31097622  0.33497340     0.13200
H392        H  0.44529844  0.31907142  0.32156315     0.13300
N393        N  0.76479544  0.22461761  0.54924138    -0.03000
C394        C  0.79156172  0.25327811  0.50850689    -0.00500
C395        C  0.83112643  0.28895256  0.52919310    -0.23300
C396        C  0.83094798  0.28257229  0.58368631    -0.23500
C397        C  0.79200349  0.24263753  0.59454047    -0.00600
H398        H  0.85731457  0.31726614  0.50648518     0.13200
H399        H  0.85788453  0.30317319  0.61249844     0.13300
N400        N  0.00120857  0.22445244  0.80004330    -0.03000
C401        C  0.96322273  0.23879819  0.84109389    -0.00500
C402        C  0.99021825  0.25670162  0.88728410    -0.23300
C403        C  0.04661989  0.25317061  0.87451748    -0.23500
C404        C  0.05247483  0.23443613  0.82052169    -0.00600
H405        H  0.97128339  0.26945407  0.92637792     0.13200
H406        H  0.08006026  0.26366802  0.90165677     0.13300
N407        N  0.98818496  0.25547971  0.31790211    -0.03000
C408        C  0.03642693  0.28197821  0.33322274    -0.00500
C409        C  0.02067151  0.33206492  0.36254114    -0.23300
C410        C  0.96369719  0.33707797  0.36579413    -0.23500
C411        C  0.94265771  0.29019789  0.33874551    -0.00600
H412        H  0.04804912  0.36279069  0.38037898     0.13200
H413        H  0.93989068  0.37177700  0.38721691     0.13300
O414        O  0.93282473  0.05981608  0.41454886    -0.74000
O415        O  0.94694002  0.09485674  0.56736979    -0.74000
O416        O  0.86691050  0.04820639  0.50276000    -0.74100
O417        O  0.01099525  0.10733990  0.47833551    -0.74100
O418        O  0.97286435  0.19608302  0.46526511    -0.74100
O419        O  0.83188441  0.13683828  0.48574544    -0.74000
O420        O  0.90931389  0.18313641  0.55364576    -0.74000
O421        O  0.89899293  0.14938575  0.39922623    -0.74100
Ni422      Ni  0.94054105  0.07417253  0.49118127     1.25400
Ni423      Ni  0.90110992  0.16923671  0.47571626     1.25400
C424        C  0.91892509  0.09999463  0.38137262     0.88200
C425        C  0.93383136  0.14618811  0.58527574     0.88100
C426        C  0.82515579  0.08412031  0.49684040     0.88100
C427        C  0.01543960  0.16149870  0.46971341     0.88300
N428        N  0.23676895  0.22377143  0.49148540    -0.03000
C429        C  0.26578448  0.24455792  0.44785679    -0.00500
C430        C  0.31910802  0.25391607  0.46549248    -0.23300
C431        C  0.32182812  0.23721493  0.52009156    -0.23500
C432        C  0.27021351  0.21919159  0.53728233    -0.00600
H433        H  0.35260663  0.27126530  0.44163683     0.13200
H434        H  0.35771767  0.23950116  0.54523010     0.13300
O435        O  0.26421452  0.10465397  0.22136191    -0.80500
O436        O  0.28324253  0.37430254  0.21965982    -0.65200
O437        O  0.28481266  0.21599739  0.26444288    -1.11800
C438        C  0.09957206  0.26847711  0.32233486     1.06400
O439        O  0.24969449  0.39835587  0.30324052    -0.78400
O440        O  0.24320198  0.31225749  0.37530964    -0.65900
Ni441      Ni  0.32633369  0.15506890  0.22691173     1.34900
C442        C  0.24209812  0.26033781  0.39096212     0.85200
O443        O  0.36768281  0.29095861  0.22498849    -0.78900
O444        O  0.39388288  0.19746997  0.23529605    -0.89200
C445        C  0.27227764  0.41157497  0.25811201     0.84700
O446        O  0.31147079  0.18173019  0.15368532    -0.67400
O447        O  0.13095019  0.30300732  0.34720181    -0.86700
C448        C  0.28679479  0.22467987  0.12987985     0.85600
C449        C  0.40527348  0.25081716  0.23390553     1.07100
H450        H  0.18532604  0.30639855  0.23072542     0.38900
O451        O  0.20950123  0.29667534  0.26093165    -1.09300
O452        O  0.22043886  0.22257082  0.35944244    -0.66000
Ni453      Ni  0.20505726  0.21760503  0.27884741     1.26300
O454        O  0.27107706  0.27124713  0.15805494    -0.66200
O455        O  0.12230605  0.22769465  0.29136847    -0.78500
C456        C  0.22855926  0.09498251  0.25898528     0.84900
O457        O  0.20508187  0.13587809  0.28863336    -0.65700
Ni458      Ni  0.19259333  0.34736673  0.32253048     1.27400
Ni459      Ni  0.28683709  0.29327180  0.23769428     1.26100
H460        H  0.30267358  0.21728255  0.29957357     0.39500
C461        C  0.11397611  0.15001006  0.44340533    -0.08700
C462        C  0.07058468  0.18440741  0.46774094     0.07500
C463        C  0.08238633  0.23577951  0.49631111    -0.02500
C464        C  0.13787585  0.24701523  0.50624237    -0.06900
C465        C  0.18072808  0.20942098  0.48535949     0.06600
C466        C  0.16881385  0.16351751  0.44978633    -0.02000
Br467      Br  0.22648363  0.11134855  0.41727882    -0.01700
H468        H  0.10604450  0.11078790  0.42178903     0.10500
H469        H  0.14788858  0.28520846  0.52956443     0.08500
Br470      Br  0.02583040  0.29076198  0.52462567    -0.02100
C471        C  0.91526562  0.12847644  0.28405613    -0.08700
C472        C  0.94151888  0.09498352  0.32471126     0.07500
C473        C  0.99980927  0.09850455  0.32665612    -0.02500
C474        C  0.02097957  0.15302424  0.31928995    -0.06900
C475        C  0.98623782  0.19714671  0.29681694     0.06600
C476        C  0.93919982  0.17990265  0.26861642    -0.02000
Br477      Br  0.90804708  0.22633247  0.21197090    -0.01700
H478        H  0.87567561  0.11703446  0.26755315     0.10500
H479        H  0.05987080  0.16217457  0.33850129     0.08500
Br480      Br  0.04336105  0.04227133  0.36570275    -0.02100
C481        C  0.97795764  0.14580633  0.73629841    -0.08700
C482        C  0.98849583  0.20418957  0.74544356     0.07500
C483        C  0.98267589  0.24257200  0.70165008    -0.02500
C484        C  0.96321165  0.22313297  0.65089998    -0.06900
C485        C  0.95124921  0.16472315  0.64153141     0.06600
C486        C  0.96028605  0.12565891  0.68508016    -0.02000
Br487      Br  0.94776745  0.04463126  0.67887456    -0.01700
H488        H  0.98277613  0.11586655  0.76969943     0.10500
H489        H  0.95826961  0.25387797  0.61827788     0.08500
Br490      Br  0.00216141  0.32153873  0.70937139    -0.02100
C491        C  0.72739261  0.09930945  0.47777273    -0.08700
C492        C  0.76784711  0.06961342  0.51003371     0.07500
C493        C  0.75979410  0.07711121  0.56652578    -0.02500
C494        C  0.73633519  0.13056063  0.58458215    -0.06900
C495        C  0.72828334  0.17555993  0.54612285     0.06600
C496        C  0.70954899  0.15578443  0.49503954    -0.02000
Br497      Br  0.65812496  0.20167229  0.45223428    -0.01700
H498        H  0.71980923  0.08508751  0.43628850     0.10500
H499        H  0.73578893  0.13791873  0.62789368     0.08500
Br500      Br  0.80946991  0.03806374  0.61668614    -0.02100
C501        C  0.47653622  0.12859135  0.13942542    -0.08700
C502        C  0.53019152  0.10199190  0.13481238     0.07500
C503        C  0.57546030  0.13794927  0.12713818    -0.02500
C504        C  0.57038241  0.19351709  0.14985566    -0.06900
C505        C  0.51865062  0.21335613  0.17196875     0.06600
C506        C  0.47202341  0.18776540  0.15009266    -0.02000
Br507      Br  0.42298533  0.23398387  0.10537771    -0.01700
H508        H  0.43990550  0.10519116  0.12924404     0.10500
H509        H  0.60593113  0.21992190  0.15079218     0.08500
Br510      Br  0.63595751  0.11998133  0.07618011    -0.02100
C511        C  0.28407918  0.94442550  0.17036061    -0.08700
C512        C  0.28625159  0.97154181  0.22249720     0.07500
C513        C  0.33758491  0.99030512  0.24047037    -0.02500
C514        C  0.38524715  0.98247207  0.20716760    -0.06900
C515        C  0.38491149  0.95286888  0.15604509     0.06600
C516        C  0.33295552  0.93503103  0.13700181    -0.02000
Br517      Br  0.32717402  0.89546616  0.06804494    -0.01700
H518        H  0.24443974  0.93014057  0.15590475     0.10500
H519        H  0.42417431  0.99721930  0.22312751     0.08500
Br520      Br  0.34557614  0.02273816  0.31255138    -0.02100
C521        C  0.77731328  0.97206305  0.18227207    -0.08700
C522        C  0.74730083  0.99759579  0.22784452     0.07500
C523        C  0.69396579  0.02239580  0.21891675    -0.02500
C524        C  0.67472858  0.02710568  0.16588106    -0.06900
C525        C  0.69546723  0.98854331  0.12429183     0.06600
C526        C  0.75078989  0.96633123  0.13092552    -0.02000
Br527      Br  0.79222143  0.93810846  0.06768765    -0.01700
H528        H  0.81988483  0.95485140  0.18708295     0.10500
H529        H  0.63380546  0.04659839  0.16285797     0.08500
Br530      Br  0.63916055  0.03327036  0.27721111    -0.02100
C531        C  0.55718649  0.70576354  0.16483587    -0.08700
C532        C  0.50958288  0.73540290  0.18907145     0.07500
C533        C  0.46950185  0.75803654  0.15008918    -0.02500
C534        C  0.48562618  0.75935854  0.09458316    -0.06900
C535        C  0.54270622  0.76293406  0.08455669     0.06600
C536        C  0.57594400  0.72257276  0.11310229    -0.02000
Br537      Br  0.65003662  0.70103230  0.08783315    -0.01700
H538        H  0.58214981  0.67444350  0.18664482     0.10500
H539        H  0.45713017  0.78024239  0.06595480     0.08500
Br540      Br  0.40308137  0.80565442  0.16277800    -0.02100
C541        C  0.15175069  0.53949840  0.13107746    -0.08700
C542        C  0.18389679  0.53955902  0.08235444     0.07500
C543        C  0.24162310  0.52211193  0.08446098    -0.02500
C544        C  0.26654041  0.51173632  0.13463524    -0.06900
C545        C  0.23515045  0.51629937  0.18304976     0.06600
C546        C  0.17724532  0.52917454  0.18133277    -0.02000
Br547      Br  0.13238839  0.53452162  0.24688390    -0.01700
H548        H  0.10702294  0.54957226  0.13040604     0.10500
H549        H  0.31115290  0.50113006  0.13628668     0.08500
Br550      Br  0.28909568  0.50553812  0.02167890    -0.02100
C551        C  0.18511666  0.30817310  0.02150468    -0.08700
C552        C  0.24364029  0.30369067  0.01847976     0.07500
C553        C  0.27198208  0.34545219  0.98971160    -0.02500
C554        C  0.24194198  0.38843976  0.96162804    -0.06900
C555        C  0.18308086  0.39324778  0.96418135     0.06600
C556        C  0.15466162  0.35189999  0.99445223    -0.02000
Br557      Br  0.07494482  0.34808848  0.99676328    -0.01700
H558        H  0.16299152  0.27394344  0.04059932     0.10500
H559        H  0.26521422  0.41876038  0.93831091     0.08500
Br560      Br  0.35207623  0.34104116  0.98332032    -0.02100
C561        C  0.16530508  0.43087328  0.79607069    -0.08700
C562        C  0.19327555  0.46618886  0.76069268     0.07500
C563        C  0.16056359  0.50513873  0.72815863    -0.02500
C564        C  0.10390354  0.51730540  0.74287278    -0.06900
C565        C  0.08216623  0.49152076  0.78981819     0.06600
C566        C  0.10753900  0.43704366  0.80140714    -0.02000
Br567      Br  0.07538734  0.38466165  0.84911874    -0.01700
H568        H  0.18780609  0.40333361  0.82401921     0.10500
H569        H  0.08090961  0.55336558  0.72445184     0.08500
Br570      Br  0.19002966  0.54217349  0.66507062    -0.02100
C571        C  0.16412505  0.76033154  0.95158068    -0.08700
C572        C  0.17636718  0.72848830  0.99910085     0.07500
C573        C  0.12854780  0.71514198  0.03171265    -0.02500
C574        C  0.07487163  0.72134228  0.00909991    -0.06900
C575        C  0.07298410  0.71937518  0.95231735     0.06600
C576        C  0.11024319  0.75787450  0.92919768    -0.02000
Br577      Br  0.08479140  0.81350557  0.87724319    -0.01700
H578        H  0.19648858  0.78235001  0.93012063     0.10500
H579        H  0.03980962  0.70591123  0.03202519     0.08500
Br580      Br  0.12852641  0.67210143  0.09624333    -0.02100
C581        C  0.52584273  0.22641008  0.58015230    -0.08700
C582        C  0.46812242  0.23595439  0.57468030     0.07500
C583        C  0.44493518  0.27657502  0.61380362    -0.02500
C584        C  0.46464880  0.27470395  0.66762340    -0.06900
C585        C  0.51198867  0.23864645  0.67939822     0.06600
C586        C  0.54662542  0.22049238  0.63347185    -0.02000
Br587      Br  0.61692706  0.17972085  0.63674690    -0.01700
H588        H  0.54990658  0.20621362  0.54636564     0.10500
H589        H  0.44174242  0.29848382  0.70003874     0.08500
Br590      Br  0.39252556  0.33766962  0.59425885    -0.02100
C591        C  0.21895235  0.01283973  0.62651250    -0.08700
C592        C  0.25044347  0.97319087  0.65592346     0.07500
C593        C  0.29650162  0.94348653  0.62967162    -0.02500
C594        C  0.31372776  0.96100459  0.57770063    -0.06900
C595        C  0.29393387  0.01541960  0.55923062     0.06600
C596        C  0.24054202  0.03454825  0.57914363    -0.02000
Br597      Br  0.19224303  0.08785211  0.54594242    -0.01700
H598        H  0.17989097  0.03126411  0.64367514     0.10500
H599        H  0.35218143  0.94112177  0.56032381     0.08500
Br600      Br  0.34333978  0.88828385  0.66561474    -0.02100
C601        C  0.49568041  0.85680322  0.72980111    -0.08700
C602        C  0.49522020  0.80471803  0.70050908     0.07500
C603        C  0.48406199  0.80533065  0.64418498    -0.02500
C604        C  0.47201563  0.85841389  0.61825409    -0.06900
C605        C  0.46929733  0.91080631  0.64869130     0.06600
C606        C  0.48298135  0.90931317  0.70501508    -0.02000
Br607      Br  0.48578228  0.97641234  0.75220300    -0.01700
H608        H  0.50534386  0.85619307  0.77296757     0.10500
H609        H  0.46184001  0.85846444  0.57523063     0.08500
Br610      Br  0.48272112  0.73474031  0.60261740    -0.02100
C611        C  0.68304058  0.99817687  0.65057394    -0.08900
C612        C  0.69050120  0.01198426  0.70569287     0.07500
C613        C  0.64589260  0.03788429  0.73650077    -0.02500
C614        C  0.59704157  0.05603514  0.71054243    -0.06900
C615        C  0.59099159  0.04805927  0.65391465     0.06600
C616        C  0.63435510  0.01683988  0.62393780    -0.02000
Br617      Br  0.63101406  0.99591347  0.54764938    -0.01700
H618        H  0.71551923  0.97338797  0.62793383     0.10500
H619        H  0.56309130  0.07526918  0.73518897     0.08500
Br620      Br  0.64778022  0.04325850  0.81486383    -0.02100
C621        C  0.86835517  0.53507202  0.25533785    -0.08700
C622        C  0.83421401  0.48730451  0.24977829     0.07500
C623        C  0.86258602  0.43067798  0.25559269    -0.02500
C624        C  0.92179040  0.42695782  0.26102301    -0.06900
C625        C  0.95072874  0.47088644  0.23565544     0.06600
C626        C  0.92741757  0.52573092  0.25251468    -0.02000
Br627      Br  0.97421537  0.58200189  0.28222176    -0.01700
H628        H  0.84979778  0.57847193  0.26081524     0.10500
H629        H  0.94238990  0.38411390  0.25955997     0.08500
Br630      Br  0.83671945  0.36116632  0.22127113    -0.02100
C631        C  0.87342014  0.31734468  0.99080194    -0.08700
C632        C  0.91005187  0.29857056  0.03185838     0.07500
C633        C  0.89374131  0.24993236  0.06067559    -0.02500
C634        C  0.83648659  0.23781987  0.06446485    -0.06900
C635        C  0.79650871  0.27373299  0.03772060     0.06600
C636        C  0.81605306  0.31587016  0.00212345    -0.02000
Br637      Br  0.76745156  0.37880112  0.97723577    -0.01700
H638        H  0.88640077  0.35065862  0.96379041     0.10500
H639        H  0.82355436  0.20099096  0.08729570     0.08500
Br640      Br  0.95020938  0.19262082  0.07961737    -0.02100
C641        C  0.84708825  0.45128757  0.82979520    -0.08700
C642        C  0.79262816  0.47638994  0.83044236     0.07500
C643        C  0.77023829  0.50285629  0.87803577    -0.02500
C644        C  0.80302042  0.50469725  0.92418266    -0.06900
C645        C  0.85663325  0.47659770  0.92562773     0.06600
C646        C  0.87841667  0.44984669  0.87742745    -0.02000
Br647      Br  0.94423164  0.40139391  0.87645530    -0.01700
H648        H  0.86352684  0.42934629  0.79301001     0.10500
H649        H  0.78383282  0.52339224  0.96039710     0.08500
Br650      Br  0.69269928  0.52827275  0.88453560    -0.02100
C651        C  0.80598270  0.65752267  0.99442154    -0.08700
C652        C  0.83460216  0.70720441  0.98861940     0.07500
C653        C  0.88981815  0.71009010  0.00667067    -0.02500
C654        C  0.91420594  0.66314602  0.03455846    -0.06900
C655        C  0.88086491  0.61771262  0.04927993     0.06600
C656        C  0.82505387  0.61682954  0.03027924    -0.02000
Br657      Br  0.76648630  0.57030622  0.05690324    -0.01700
H658        H  0.76285244  0.65719845  0.98127710     0.10500
H659        H  0.95705761  0.66365753  0.04783910     0.08500
Br660      Br  0.92994307  0.77853736  0.99664779    -0.02100
C661        C  0.19983127  0.94370547  0.45821523    -0.08700
C662        C  0.15371850  0.94824934  0.49409710     0.07500
C663        C  0.16141387  0.92806317  0.54730302    -0.02500
C664        C  0.20304135  0.88525629  0.55604611    -0.06900
C665        C  0.23854128  0.86514183  0.51276176     0.06600
C666        C  0.24343754  0.90274639  0.46793224    -0.02000
Br667      Br  0.31019612  0.90528371  0.42369279    -0.01700
H668        H  0.19918358  0.96719655  0.42042716     0.10500
H669        H  0.20543134  0.86857984  0.59624751     0.08500
Br670      Br  0.10708749  0.94480889  0.60484101    -0.02100
C671        C  0.00849605  0.85645732  0.23708121    -0.08700
C672        C  0.97883610  0.80893325  0.25284969     0.07500
C673        C  0.93601262  0.81669521  0.29306426    -0.02500
C674        C  0.92481711  0.87142391  0.31673786    -0.06900
C675        C  0.96585683  0.91233467  0.31310611     0.06600
C676        C  0.00183123  0.90841678  0.26680339    -0.02000
Br677      Br  0.04351318  0.97159061  0.24330049    -0.01700
H678        H  0.03800981  0.85241900  0.20301587     0.10500
H679        H  0.89489293  0.87454086  0.35051848     0.08500
Br680      Br  0.89976310  0.75288083  0.32520508    -0.02100
C681        C  0.02132664  0.73776373  0.66851834    -0.08700
C682        C  0.99639949  0.76748839  0.71332065     0.07500
C683        C  0.98563449  0.82768651  0.71122715    -0.02500
C684        C  0.99386866  0.85594407  0.66173182    -0.06900
C685        C  0.01799886  0.82544461  0.61615867     0.06600
C686        C  0.03608791  0.76653920  0.62195589    -0.02000
Br687      Br  0.08426437  0.72176050  0.57129228    -0.01700
H688        H  0.03308261  0.69206608  0.67171733     0.10500
H689        H  0.98209259  0.90164453  0.65912482     0.08500
Br690      Br  0.96435392  0.87282275  0.77525472    -0.02100
C691        C  0.76100447  0.82020650  0.49548111    -0.08700
C692        C  0.75823194  0.76140779  0.48564473     0.07500
C693        C  0.80664459  0.72703618  0.47215541    -0.02500
C694        C  0.85746968  0.75325871  0.46544011    -0.06900
C695        C  0.86035086  0.81345063  0.47303202     0.06600
C696        C  0.81129114  0.84651327  0.49043068    -0.02000
Br697      Br  0.80691897  0.92696631  0.51044185    -0.01700
H698        H  0.72317312  0.84579052  0.50676067     0.10500
H699        H  0.89465818  0.72646225  0.45476625     0.08500
Br700      Br  0.80481721  0.64458360  0.46475737    -0.02100
loop_ 
_geom_bond_atom_site_label_1 
_geom_bond_atom_site_label_2 
_geom_bond_distance 
_geom_bond_site_symmetry_2 
_ccdc_geom_bond_type 
O1           Ni7   1.899       .  S
O1           C22   1.262       .  A
O2          Ni25   2.007       .  S
O2           C11   1.287       .  A
O3           Ni7   1.909       .  S
O3          Ni25   1.946       .  S
O3          Ni19   1.963       .  S
O3           H26   0.966       .  S
C4           O21   1.302       .  A
C4           O13   1.280       .  A
C4          C148   1.473       .  S
O5          Ni24   1.883       .  S
O5           C11   1.261       .  A
O6          Ni24   1.901       .  S
O6            C8   1.259       .  A
Ni7          O10   1.897       .  S
Ni7          O12   1.915       .  S
C8           O18   1.282       .  A
C8           C64   1.505       .  S
O9          Ni25   1.976       .  S
O9           C15   1.294       .  A
O10          C15   1.272       .  A
C11         C242   1.526       .  S
O12          C14   1.269       .  A
O13         Ni24   1.905       .  S
C14          O20   1.283       .  A
C14         C252   1.493       .  S
C15          C54   1.485       .  S
H16          O17   0.966       .  S
O17         Ni25   1.928       .  S
O17         Ni19   1.898       .  S
O17         Ni24   1.878       .  S
O18         Ni19   1.972       .  S
Ni19         O23   1.997       .  S
Ni19         O21   1.964       .  S
O20         Ni25   1.969       .  S
C22          O23   1.283       .  A
C22         C155   1.521       .  S
O27         Ni33   1.968       .  S
O27          C48   1.291       .  A
O28         Ni51   1.977       .  S
O28          C37   1.299       .  A
O29         Ni33   1.891       .  S
O29         Ni51   1.925       .  S
O29         Ni45   1.919       .  S
O29          H52   0.967       .  S
C30          O47   1.287       .  A
C30          O39   1.279       .  A
C30         C310   1.500       .  S
O31         Ni50   1.915       .  S
O31          C37   1.289       .  A
O32         Ni50   1.783       .  S
O32          C34   1.275       .  A
Ni33         O36   1.947       .  S
Ni33         O38   1.971       .  S
C34          O44   1.343       .  A
C34         C317   1.545       .  S
O35         Ni51   1.908       .  S
O35          C41   1.276       .  A
O36          C41   1.285       .  A
C37         C249   1.509       .  S
O38          C40   1.283       .  A
O39         Ni50   1.883       .  S
C40          O46   1.285       .  A
C40         C256   1.538       .  S
C41          C92   1.479       .  S
H42          O43   0.967       .  S
O43         Ni51   1.846       .  S
O43         Ni45   1.898       .  S
O43         Ni50   1.699       .  S
O44         Ni45   2.160       .  S
Ni45         O49   1.932       .  S
Ni45         O47   1.964       .  S
O46         Ni51   1.969       .  S
C48          O49   1.284       .  A
C48          C61   1.518       .  S
N53          C57   1.352       .  A
N53          C54   1.354       .  A
N53         C692   1.415       .  S
C54          C55   1.386       .  A
C55          C56   1.381       .  A
C55          H58   1.081       .  S
C56          C57   1.383       .  A
C56          H59   1.082       .  S
C57         C124   1.489       .  S
N60          C64   1.369       .  A
N60          C61   1.366   1_655  A
N60         C682   1.426       .  S
C61          C62   1.379       .  A
C62          C63   1.383   1_455  A
C62          H65   1.070       .  S
C63          C64   1.382       .  A
C63          H66   1.082       .  S
N67          C71   1.363       .  A
N67          C68   1.371   1_655  A
N67         C672   1.430       .  S
C68         C105   1.523       .  S
C68          C69   1.388       .  A
C69          C70   1.385   1_455  A
C69          H72   1.080       .  S
C70          C71   1.378       .  A
C70          H73   1.081       .  S
C71         C134   1.503       .  S
O74         Ni82   1.925   1_655  S
O74          C84   1.285       .  A
O75         Ni82   1.894       .  S
O75          C85   1.280       .  A
O76         Ni82   1.869       .  S
O76          C86   1.269       .  A
O77         Ni82   1.872       .  S
O77          C87   1.273   1_455  A
O78         Ni83   1.929       .  S
O78          C87   1.283       .  A
O79         Ni83   1.929       .  S
O79          C86   1.285   1_655  A
O80         Ni83   1.906   1_455  S
O80          C85   1.275       .  A
O81         Ni83   1.876       .  S
O81          C84   1.270       .  A
Ni82        Ni83   2.387   1_455  S
C84         C695   1.474       .  S
C85         C662   1.449       .  S
C86         C685   1.473       .  S
C87         C675   1.459       .  S
N88          C92   1.369       .  A
N88          C89   1.365       .  A
N88         C665   1.454       .  S
C89          C98   1.483       .  S
C89          C90   1.379       .  A
C90          C91   1.367       .  A
C90          H93   1.083       .  S
C91          C92   1.381       .  A
C91          H94   1.083       .  S
O95        Ni101   1.908       .  S
O95         C116   1.255       .  A
O96        Ni119   1.940       .  S
O96         C105   1.279       .  A
O97        Ni101   1.907       .  S
O97        Ni119   1.921       .  S
O97        Ni113   1.881       .  S
O97         H120   0.959       .  S
C98         O115   1.265       .  A
C98         O107   1.280       .  A
O99        Ni118   1.972       .  S
O99         C105   1.280       .  A
O100       Ni118   1.903       .  S
O100        C102   1.276       .  A
Ni101       O104   1.882       .  S
Ni101       O106   1.872       .  S
C102        O112   1.280       .  A
C102        C369   1.494       .  S
O103       Ni119   1.958       .  S
O103        C109   1.280       .  A
O104        C109   1.271       .  A
O106        C108   1.256       .  A
O107       Ni118   1.960       .  S
C108        O114   1.276       .  A
C108        C345   1.472       .  S
C109        C313   1.503       .  S
H110        O111   0.953       .  S
O111       Ni119   1.928       .  S
O111       Ni113   1.940       .  S
O111       Ni118   1.916       .  S
O112       Ni113   1.965       .  S
Ni113       O117   1.942       .  S
Ni113       O115   1.890       .  S
O114       Ni119   1.959       .  S
C116        O117   1.277       .  A
C116        C355   1.481       .  S
O121       Ni127   1.900       .  S
O121        C142   1.266       .  A
O122       Ni145   1.917       .  S
O122        C131   1.263       .  A
O123       Ni127   1.895       .  S
O123       Ni145   1.894       .  S
O123       Ni139   1.931       .  S
O123        H146   0.967       .  S
C124        O141   1.288       .  A
C124        O133   1.275       .  A
O125       Ni144   1.898       .  S
O125        C131   1.271       .  A
O126       Ni144   1.924       .  S
O126        C128   1.270       .  A
Ni127       O130   1.898       .  S
Ni127       O132   1.931       .  S
C128        O138   1.279       .  A
C128        C352   1.511       .  S
O129       Ni145   1.976       .  S
O129        C135   1.293       .  A
O130        C135   1.269       .  A
C131        C183   1.470       .  S
O132        C134   1.270       .  A
O133       Ni144   1.916       .  S
C134        O140   1.272       .  A
C135        C151   1.492       .  S
H136        O137   0.967       .  S
O137       Ni145   1.951       .  S
O137       Ni139   1.894       .  S
O137       Ni144   1.906       .  S
O138       Ni139   1.957       .  S
Ni139       O143   1.917       .  S
Ni139       O141   1.954       .  S
O140       Ni145   1.938       .  S
C142        O143   1.273       .  A
C142        C362   1.458       .  S
N147        C151   1.357   1_556  A
N147        C148   1.348       .  A
N147        C652   1.405       .  S
C148        C149   1.382       .  A
C149        C150   1.378   1_556  A
C149        H152   1.082       .  S
C150        C151   1.382       .  A
C150        H153   1.082       .  S
N154        C158   1.371       .  A
N154        C155   1.368       .  A
N154        C642   1.418       .  S
C155        C156   1.385       .  A
C156        C157   1.380       .  A
C156        H159   1.082       .  S
C157        C158   1.384       .  A
C157        H160   1.082       .  S
C158        C222   1.520       .  S
N161        C165   1.367       .  A
N161        C162   1.364       .  A
N161        C635   1.445       .  S
C162        C218   1.491   1_554  S
C162        C163   1.384       .  A
C163        C164   1.364       .  A
C163        H166   1.082   1_554  S
C164        C165   1.377       .  A
C164        H167   1.082       .  S
C165        C203   1.470       .  S
O168       Ni176   1.788       .  S
O168        C178   1.259       .  A
O169       Ni176   1.874       .  S
O169        C179   1.272   1_554  A
O170       Ni176   1.871       .  S
O170        C180   1.273       .  A
O171       Ni176   1.856       .  S
O171        C181   1.262       .  A
O172       Ni177   1.918       .  S
O172        C181   1.281       .  A
O173       Ni177   1.947       .  S
O173        C180   1.286       .  A
O174       Ni177   1.947   1_556  S
O174        C179   1.288       .  A
O175       Ni177   1.975       .  S
O175        C178   1.287       .  A
Ni176      Ni177   2.376       .  S
C178        C625   1.497       .  S
C179        C645   1.480       .  S
C180        C632   1.476       .  S
C181        C655   1.447       .  S
N182        C186   1.354       .  A
N182        C183   1.374       .  A
N182        C622   1.473       .  S
C183        C184   1.388       .  A
C184        C185   1.353       .  A
C184        H187   1.083       .  S
C185        C186   1.374       .  A
C185        H188   1.083       .  S
C186        C199   1.446       .  S
O189       Ni195   1.917       .  S
O189        C210   1.273       .  A
O190       Ni213   1.861       .  S
O190        C199   1.250       .  A
O191       Ni195   1.902       .  S
O191       Ni213   1.885       .  S
O191       Ni207   1.928       .  S
O191        H214   0.966       .  S
C192        O209   1.282       .  A
C192        O201   1.267       .  A
C192        C394   1.457       .  S
O193       Ni212   1.911       .  S
O193        C199   1.268       .  A
O194       Ni212   1.947       .  S
O194        C196   1.284       .  A
Ni195       O198   1.924       .  S
Ni195       O200   1.972       .  S
C196        O206   1.288       .  A
C196        C411   1.558       .  S
O197       Ni213   1.933       .  S
O197        C203   1.279       .  A
O198        C203   1.276       .  A
O200        C202   1.280       .  A
O201       Ni212   1.871       .  S
C202        O208   1.266       .  A
C202        C387   1.528       .  S
H204        O205   0.967       .  S
O205       Ni213   1.892       .  S
O205       Ni207   1.903       .  S
O205       Ni212   1.892       .  S
O206       Ni207   2.003       .  S
Ni207       O211   1.911       .  S
Ni207       O209   1.940       .  S
O208       Ni213   1.925       .  S
C210        O211   1.275       .  A
C210        C359   1.483       .  S
O215       Ni221   1.893       .  S
O215        C236   1.265       .  A
O216       Ni239   1.899       .  S
O216        C225   1.274       .  A
O217       Ni221   1.864       .  S
O217       Ni239   1.891       .  S
O217       Ni233   1.907       .  S
O217        H240   0.966       .  S
C218        O235   1.310       .  A
C218        O227   1.280       .  A
O219       Ni238   1.921       .  S
O219        C225   1.283       .  A
O220       Ni238   1.864       .  S
O220        C222   1.271       .  A
Ni221       O224   1.900       .  S
Ni221       O226   1.901       .  S
C222        O232   1.305       .  A
O223       Ni239   1.883       .  S
O223        C229   1.272       .  A
O224        C229   1.277       .  A
C225        C280   1.458       .  S
O226        C228   1.267       .  A
O227       Ni238   1.857       .  S
C228        O234   1.284       .  A
C228        C245   1.523       .  S
C229        C397   1.433       .  S
H230        O231   0.969       .  S
O231       Ni239   1.854       .  S
O231       Ni233   1.850       .  S
O231       Ni238   1.824       .  S
O232       Ni233   2.047       .  S
Ni233       O237   1.946       .  S
Ni233       O235   1.988       .  S
O234       Ni239   1.997       .  S
C236        O237   1.286       .  A
C236        C401   1.479       .  S
N241        C245   1.381   1_565  A
N241        C242   1.373       .  A
N241        C612   1.425   1_565  S
C242        C243   1.387       .  A
C243        C244   1.366   1_565  A
C243        H246   1.080       .  S
C244        C245   1.380       .  A
C244        H247   1.083       .  S
N248        C252   1.373       .  A
N248        C249   1.373       .  A
N248        C602   1.434       .  S
C249        C250   1.385       .  A
C250        C251   1.366       .  A
C250        H253   1.083       .  S
C251        C252   1.378       .  A
C251        H254   1.083       .  S
N255        C259   1.383   1_565  A
N255        C256   1.375       .  A
N255        C592   1.424       .  S
C256        C257   1.385       .  A
C257        C258   1.399   1_565  A
C257        H260   1.082       .  S
C258        C259   1.387       .  A
C258        H261   1.082       .  S
C259        C290   1.563       .  S
O262       Ni270   1.907       .  S
O262        C272   1.282       .  A
O263       Ni270   1.905       .  S
O263        C273   1.280       .  A
O264       Ni270   1.894       .  S
O264        C274   1.277   1_545  A
O265       Ni270   1.891       .  S
O265        C275   1.273       .  A
O266       Ni271   1.950       .  S
O266        C275   1.290       .  A
O267       Ni271   1.939   1_565  S
O267        C274   1.286       .  A
O268       Ni271   1.929       .  S
O268        C273   1.283       .  A
O269       Ni271   1.895       .  S
O269        C272   1.275       .  A
Ni270      Ni271   2.384       .  S
C272        C615   1.479       .  S
C273        C595   1.474       .  S
C274        C605   1.487       .  S
C275        C582   1.495       .  S
N276        C280   1.360       .  A
N276        C277   1.368       .  A
N276        C585   1.456       .  S
C277        C304   1.468       .  S
C277        C278   1.382       .  A
C278        C279   1.362       .  A
C278        H281   1.083       .  S
C279        C280   1.376       .  A
C279        H282   1.082       .  S
O283       Ni289   1.913       .  S
O283        C304   1.288       .  A
O284       Ni307   1.898       .  S
O284        C293   1.279       .  A
O285       Ni289   1.826       .  S
O285       Ni307   1.833       .  S
O285       Ni301   1.895       .  S
O285        H308   0.968       .  S
C286        O303   1.299       .  A
C286        O295   1.291       .  A
C286        C432   1.577       .  S
O287       Ni306   1.969       .  S
O287        C293   1.288       .  A
O288       Ni306   1.967       .  S
O288        C290   1.282       .  A
Ni289       O292   1.911       .  S
Ni289       O294   1.875       .  S
C290        O300   1.292       .  A
O291       Ni307   2.053       .  S
O291        C297   1.318       .  A
O292        C297   1.287       .  A
C293        C404   1.488       .  S
O294        C296   1.270       .  A
O295       Ni306   2.001       .  S
C296        O302   1.304       .  A
C296        C320   1.553       .  S
C297        C324   1.544       .  S
H298        O299   0.965       .  S
O299       Ni307   1.946       .  S
O299       Ni301   1.909       .  S
O299       Ni306   1.903       .  S
O300       Ni301   2.008       .  S
Ni301       O305   1.944       .  S
Ni301       O303   1.994       .  S
O302       Ni307   2.054       .  S
C304        O305   1.294       .  A
N309        C313   1.382       .  A
N309        C310   1.390   1_554  A
N309        C572   1.458   1_554  S
C310        C311   1.372       .  A
C311        C312   1.339   1_556  A
C311        H314   1.083       .  S
C312        C313   1.386       .  A
C312        H315   1.084       .  S
N316        C320   1.391       .  A
N316        C317   1.382       .  A
N316        C562   1.434       .  S
C317        C318   1.385       .  A
C318        C319   1.372       .  A
C318        H321   1.083       .  S
C319        C320   1.385       .  A
C319        H322   1.083       .  S
N323        C327   1.390       .  A
N323        C324   1.384   1_554  A
N323        C552   1.422       .  S
C324        C325   1.374       .  A
C325        C326   1.383   1_556  A
C325        H328   1.082       .  S
C326        C327   1.397       .  A
C326        H329   1.083       .  S
C327        C448   1.572       .  S
O330       Ni338   1.882       .  S
O330        C340   1.277       .  A
O331       Ni338   1.900       .  S
O331        C341   1.277   1_556  A
O332       Ni338   1.902       .  S
O332        C342   1.280       .  A
O333       Ni338   1.897       .  S
O333        C343   1.274       .  A
O334       Ni339   1.944       .  S
O334        C343   1.286       .  A
O335       Ni339   1.909       .  S
O335        C342   1.280       .  A
O336       Ni339   1.920   1_554  S
O336        C341   1.284       .  A
O337       Ni339   1.930       .  S
O337        C340   1.283       .  A
Ni338      Ni339   2.383       .  S
C340        C565   1.469       .  S
C341        C542   1.484       .  S
C342        C555   1.481       .  S
C343        C575   1.497       .  S
N344        C348   1.358       .  A
N344        C345   1.352       .  A
N344        C545   1.427       .  S
C345        C346   1.382       .  A
C346        C347   1.372       .  A
C346        H349   1.083       .  S
C347        C348   1.383       .  A
C347        H350   1.083       .  S
C348        C445   1.467       .  S
N351        C355   1.378       .  A
N351        C352   1.384       .  A
N351        C532   1.474       .  S
C352        C353   1.384       .  A
C353        C354   1.369       .  A
C353        H356   1.083       .  S
C354        C355   1.375       .  A
C354        H357   1.082       .  S
N358        C362   1.356       .  A
N358        C359   1.365   1_565  A
N358        C522   1.448       .  S
C359        C360   1.379       .  A
C360        C361   1.373   1_545  A
C360        H363   1.072       .  S
C361        C362   1.374       .  A
C361        H364   1.079       .  S
N365        C369   1.373       .  A
N365        C366   1.375   1_565  A
N365        C512   1.446       .  S
C366        C456   1.492       .  S
C366        C367   1.368       .  A
C367        C368   1.358   1_545  A
C367        H370   1.076       .  S
C368        C369   1.380       .  A
C368        H371   1.083       .  S
O372       Ni380   1.899       .  S
O372        C382   1.283       .  A
O373       Ni380   1.941   1_545  S
O373        C383   1.293       .  A
O374       Ni380   1.861       .  S
O374        C384   1.268       .  A
O375       Ni380   1.861       .  S
O375        C385   1.263       .  A
O376       Ni381   1.988       .  S
O376        C385   1.299       .  A
O377       Ni381   1.993       .  S
O377        C384   1.299       .  A
O378       Ni381   1.857   1_545  S
O378        C383   1.261       .  A
O379       Ni381   1.921       .  S
O379        C382   1.277       .  A
Ni380      Ni381   2.387       .  S
C382        C535   1.473       .  S
C383        C502   1.443       .  S
C384        C515   1.504       .  S
C385        C525   1.493       .  S
N386        C390   1.377       .  A
N386        C387   1.382       .  A
N386        C505   1.446       .  S
C387        C388   1.386       .  A
C388        C389   1.381       .  A
C388        H391   1.082       .  S
C389        C390   1.380       .  A
C389        H392   1.082       .  S
C390        C449   1.516       .  S
N393        C397   1.363       .  A
N393        C394   1.374       .  A
N393        C495   1.470       .  S
C394        C395   1.384       .  A
C395        C396   1.343       .  A
C395        H398   1.084       .  S
C396        C397   1.372       .  A
C396        H399   1.083       .  S
N400        C404   1.361       .  A
N400        C401   1.368   1_455  A
N400        C482   1.449   1_455  S
C401        C402   1.378       .  A
C402        C403   1.378   1_655  A
C402        H405   1.081       .  S
C403        C404   1.385       .  A
C403        H406   1.082       .  S
N407        C411   1.403       .  A
N407        C408   1.388   1_655  A
N407        C475   1.440       .  S
C408        C438   1.544       .  S
C408        C409   1.385       .  A
C409        C410   1.362   1_455  A
C409        H412   1.082       .  S
C410        C411   1.382       .  A
C410        H413   1.082       .  S
O414       Ni422   1.910       .  S
O414        C424   1.278       .  A
O415       Ni422   1.926       .  S
O415        C425   1.281       .  A
O416       Ni422   1.909       .  S
O416        C426   1.276       .  A
O417       Ni422   1.912   1_455  S
O417        C427   1.284       .  A
O418       Ni423   1.871       .  S
O418        C427   1.268   1_655  A
O419       Ni423   1.867       .  S
O419        C426   1.272       .  A
O420       Ni423   1.941       .  S
O420        C425   1.286       .  A
O421       Ni423   1.920       .  S
O421        C424   1.282       .  A
Ni422      Ni423   2.385       .  S
C424        C472   1.480       .  S
C425        C485   1.505       .  S
C426        C492   1.461       .  S
C427        C462   1.447       .  S
N428        C432   1.388       .  A
N428        C429   1.371       .  A
N428        C465   1.407       .  S
C429        C442   1.551       .  S
C429        C430   1.379       .  A
C430        C431   1.397       .  A
C430        H433   1.082       .  S
C431        C432   1.385       .  A
C431        H434   1.066       .  S
O435       Ni441   1.942       .  S
O435        C456   1.275       .  A
O436       Ni459   1.931       .  S
O436        C445   1.280       .  A
O437       Ni441   1.897       .  S
O437       Ni459   1.917       .  S
O437       Ni453   1.933       .  S
O437        H460   0.966       .  S
C438        O455   1.292       .  A
C438        O447   1.277       .  A
O439       Ni458   1.910       .  S
O439        C445   1.270       .  A
O440       Ni458   1.941       .  S
O440        C442   1.268       .  A
Ni441       O444   1.945       .  S
Ni441       O446   1.935       .  S
C442        O452   1.290       .  A
O443       Ni459   1.951       .  S
O443        C449   1.282       .  A
O444        C449   1.279       .  A
O446        C448   1.281       .  A
O447       Ni458   1.935       .  S
C448        O454   1.304       .  A
H450        O451   0.967       .  S
O451       Ni459   1.924       .  S
O451       Ni453   1.896       .  S
O451       Ni458   1.918       .  S
O452       Ni453   2.012       .  S
Ni453       O457   1.910       .  S
Ni453       O455   1.999       .  S
O454       Ni459   2.050       .  S
C456        O457   1.282       .  A
C461        C462   1.394       .  A
C461        C466   1.375       .  A
C461        H468   1.070       .  S
C462        C463   1.412       .  A
C463        C464   1.390       .  A
C463       Br470   1.920       .  S
C464        C465   1.394       .  A
C464        H469   1.083       .  S
C465        C466   1.405       .  A
C466       Br467   1.936       .  S
C471        C472   1.405       .  A
C471        C476   1.402       .  A
C471        H478   1.079       .  S
C472        C473   1.402       .  A
C473        C474   1.397   1_655  A
C473       Br480   1.902   1_655  S
C474        C475   1.406   1_455  A
C474        H479   1.078       .  S
C475        C476   1.401       .  A
C476       Br477   1.903       .  S
C481        C482   1.402       .  A
C481        C486   1.407       .  A
C481        H488   1.083       .  S
C482        C483   1.406       .  A
C483        C484   1.407       .  A
C483       Br490   1.916   1_655  S
C484        C485   1.412       .  A
C484        H489   1.081       .  S
C485        C486   1.419       .  A
C486       Br487   1.918       .  S
C491        C492   1.414       .  A
C491        C496   1.409       .  A
C491        H498   1.082       .  S
C492        C493   1.398       .  A
C493        C494   1.393       .  A
C493       Br500   1.923       .  S
C494        C495   1.422       .  A
C494        H499   1.069       .  S
C495        C496   1.410       .  A
C496       Br497   1.916       .  S
C501        C502   1.396       .  A
C501        C506   1.388       .  A
C501        H508   1.084       .  S
C502        C503   1.412       .  A
C503        C504   1.391       .  A
C503       Br510   1.919       .  S
C504        C505   1.395       .  A
C504        H509   1.073       .  S
C505        C506   1.399       .  A
C506       Br507   1.913       .  S
C511        C512   1.414       .  A
C511        C516   1.420       .  A
C511        H518   1.083       .  S
C512        C513   1.398       .  A
C513        C514   1.393       .  A
C513       Br520   1.920   1_565  S
C514        C515   1.415       .  A
C514        H519   1.084       .  S
C515        C516   1.413       .  A
C516       Br517   1.915       .  S
C521        C522   1.419       .  A
C521        C526   1.422       .  A
C521        H528   1.082       .  S
C522        C523   1.392   1_565  A
C523        C524   1.386       .  A
C523       Br530   1.926       .  S
C524        C525   1.408   1_545  A
C524        H529   1.060       .  S
C525        C526   1.406       .  A
C526       Br527   1.910       .  S
C531        C532   1.415       .  A
C531        C536   1.403       .  A
C531        H538   1.069       .  S
C532        C533   1.446       .  A
C533        C534   1.406       .  A
C533       Br540   1.903       .  S
C534        C535   1.390       .  A
C534        H539   1.085       .  S
C535        C536   1.397       .  A
C536       Br537   1.906       .  S
C541        C542   1.408       .  A
C541        C546   1.398       .  A
C541        H548   1.083       .  S
C542        C543   1.420       .  A
C543        C544   1.390       .  A
C543       Br550   1.916       .  S
C544        C545   1.391       .  A
C544        H549   1.084       .  S
C545        C546   1.402       .  A
C546       Br547   1.913       .  S
C551        C552   1.399       .  A
C551        C556   1.396   1_554  A
C551        H558   1.084       .  S
C552        C553   1.402   1_554  A
C553        C554   1.392       .  A
C553       Br560   1.917       .  S
C554        C555   1.406       .  A
C554        H559   1.082       .  S
C555        C556   1.415       .  A
C556       Br557   1.913       .  S
C561        C562   1.388       .  A
C561        C566   1.385       .  A
C561        H568   1.073       .  S
C562        C563   1.423       .  A
C563        C564   1.409       .  A
C563       Br570   1.919       .  S
C564        C565   1.407       .  A
C564        H569   1.083       .  S
C565        C566   1.405       .  A
C566       Br567   1.881       .  S
C571        C572   1.412       .  A
C571        C576   1.411       .  A
C571        H578   1.083       .  S
C572        C573   1.434   1_556  A
C573        C574   1.407       .  A
C573       Br580   1.879       .  S
C574        C575   1.389   1_554  A
C574        H579   1.081       .  S
C575        C576   1.411       .  A
C576       Br577   1.906       .  S
C581        C582   1.395       .  A
C581        C586   1.408       .  A
C581        H588   1.084       .  S
C582        C583   1.416       .  A
C583        C584   1.405       .  A
C583       Br590   1.911       .  S
C584        C585   1.407       .  A
C584        H589   1.082       .  S
C585        C586   1.429       .  A
C586       Br587   1.887       .  S
C591        C592   1.375   1_545  A
C591        C596   1.374       .  A
C591        H598   1.082       .  S
C592        C593   1.408       .  A
C593        C594   1.402       .  A
C593       Br600   1.890       .  S
C594        C595   1.405   1_565  A
C594        H599   1.084       .  S
C595        C596   1.406       .  A
C596       Br597   1.851       .  S
C601        C602   1.392       .  A
C601        C606   1.388       .  A
C601        H608   1.084       .  S
C602        C603   1.406       .  A
C603        C604   1.410       .  A
C603       Br610   1.911       .  S
C604        C605   1.410       .  A
C604        H609   1.083       .  S
C605        C606   1.420       .  A
C606       Br607   1.923       .  S
C611        C612   1.396   1_565  A
C611        C616   1.395   1_565  A
C611        H618   1.081       .  S
C612        C613   1.399       .  A
C613        C614   1.387       .  A
C613       Br620   1.919       .  S
C614        C615   1.404       .  A
C614        H619   1.076       .  S
C615        C616   1.419       .  A
C616       Br617   1.923   1_545  S
C621        C622   1.414       .  A
C621        C626   1.418       .  A
C621        H628   1.082       .  S
C622        C623   1.453       .  A
C623        C624   1.422       .  A
C623       Br630   1.936       .  S
C624        C625   1.407       .  A
C624        H629   1.083       .  S
C625        C626   1.411       .  A
C626       Br627   1.903       .  S
C631        C632   1.401   1_556  A
C631        C636   1.398   1_556  A
C631        H638   1.078       .  S
C632        C633   1.407       .  A
C633        C634   1.414       .  A
C633       Br640   1.910       .  S
C634        C635   1.409       .  A
C634        H639   1.082       .  S
C635        C636   1.411       .  A
C636       Br637   1.927   1_554  S
C641        C642   1.397       .  A
C641        C646   1.394       .  A
C641        H648   1.083       .  S
C642        C643   1.392       .  A
C643        C644   1.385       .  A
C643       Br650   1.919       .  S
C644        C645   1.408       .  A
C644        H649   1.066       .  S
C645        C646   1.402       .  A
C646       Br647   1.883       .  S
C651        C652   1.377       .  A
C651        C656   1.363   1_556  A
C651        H658   1.085       .  S
C652        C653   1.403   1_556  A
C653        C654   1.398       .  A
C653       Br660   1.912   1_554  S
C654        C655   1.401       .  A
C654        H659   1.080       .  S
C655        C656   1.421       .  A
C656       Br657   1.923       .  S
C661        C662   1.397       .  A
C661        C666   1.397       .  A
C661        H668   1.079       .  S
C662        C663   1.401       .  A
C663        C664   1.388       .  A
C663       Br670   1.921       .  S
C664        C665   1.404       .  A
C664        H669   1.063       .  S
C665        C666   1.418       .  A
C666       Br667   1.919       .  S
C671        C672   1.396   1_455  A
C671        C676   1.395       .  A
C671        H678   1.083       .  S
C672        C673   1.411       .  A
C673        C674   1.395       .  A
C673       Br680   1.924       .  S
C674        C675   1.402       .  A
C674        H679   1.083       .  S
C675        C676   1.410   1_655  A
C676       Br677   1.904       .  S
C681        C682   1.393   1_455  A
C681        C686   1.379       .  A
C681        H688   1.084       .  S
C682        C683   1.405       .  A
C683        C684   1.401       .  A
C683       Br690   1.914       .  S
C684        C685   1.408   1_655  A
C684        H689   1.083       .  S
C685        C686   1.418       .  A
C686       Br687   1.929       .  S
C691        C692   1.383       .  A
C691        C696   1.381       .  A
C691        H698   1.084       .  S
C692        C693   1.401       .  A
C693        C694   1.395       .  A
C693       Br700   1.916       .  S
C694        C695   1.407       .  A
C694        H699   1.083       .  S
C695        C696   1.422       .  A
C696       Br697   1.914       .  S
