geometry optimzed in LAMMPS
_audit_creation_date              2020-11-30 
_audit_creation_method            'lammps2cif' 
_symmetry_space_group_name_H-M    'P1' 
_symmetry_Int_Tables_number       1 
_symmetry_cell_setting            triclinic 
loop_ 
_symmetry_equiv_pos_as_xyz 
  x,y,z 
_cell_length_a                    46.99722331 
_cell_length_b                    32.18640726815196 
_cell_length_c                    38.70058155452169 
_cell_angle_alpha                 90.15381773423678 
_cell_angle_beta                  119.51126812690799 
_cell_angle_gamma                 89.96364811365156 
loop_ 
_atom_site_label 
_atom_site_type_symbol 
_atom_site_fract_x 
_atom_site_fract_y 
_atom_site_fract_z 
_atom_site_charge 
C1          C  0.88141736  0.19547979  0.67853006     0.80500
N2          N  0.89591150  0.21159220  0.65871977    -0.77800
C3          C  0.87771058  0.23154062  0.62358323     0.83000
N4          N  0.84464550  0.23414082  0.60767758    -0.77700
C5          C  0.83002732  0.21743061  0.62726563     0.83000
N6          N  0.84861270  0.19865565  0.66277138    -0.79500
O7          O  0.50962432  0.28161480  0.39585994    -0.80600
O8          O  0.46858728  0.13691494  0.47597164    -0.65300
O9          O  0.49679761  0.23676217  0.44883004    -1.11900
C10         C  0.60237900  0.18448564  0.51982549     1.06300
O11         O  0.51329560  0.12427125  0.53395096    -0.78500
O12         O  0.54214547  0.20098964  0.55352381    -0.66100
Ni13       Ni  0.47276875  0.25365361  0.39422088     1.34900
C14         C  0.55047433  0.23653714  0.54734898     0.85000
O15         O  0.43880631  0.20683354  0.44250744    -0.79000
O16         O  0.43141731  0.23112407  0.38493752    -0.89300
C17         C  0.48343143  0.11773652  0.50871879     0.84600
O18         O  0.48332817  0.20322265  0.37704437    -0.67500
O19         O  0.59193500  0.17108536  0.54246797    -0.86800
C20         C  0.47514337  0.16742466  0.38291987     0.85400
C21         C  0.42027012  0.21852056  0.40708525     1.07000
H22         H  0.52626396  0.14503701  0.46371091     0.38800
O23         O  0.52597663  0.16748138  0.48016849    -1.09500
O24         O  0.55430410  0.24425750  0.51756840    -0.66100
Ni25       Ni  0.54049128  0.21715925  0.46692529     1.26300
O26         O  0.46954309  0.15969180  0.41134664    -0.66300
O27         O  0.58331951  0.19633174  0.48468666    -0.78600
C28         C  0.53964624  0.28709084  0.42092379     0.84800
O29         O  0.55446305  0.26654831  0.45277075    -0.65800
Ni30       Ni  0.55046721  0.15019371  0.53456053     1.27400
Ni31       Ni  0.48217647  0.18669424  0.46164212     1.26100
H32         H  0.49661464  0.25917588  0.46537544     0.39400
C33         C  0.14043342  0.23987170  0.25259679     0.80500
N34         N  0.17286147  0.23416766  0.26632233    -0.77800
C35         C  0.19128874  0.21238599  0.30014663     0.83000
N36         N  0.17689986  0.19546489  0.31982411    -0.77700
C37         C  0.14433075  0.20057149  0.30596579     0.83000
N38         N  0.12621749  0.22321206  0.27255011    -0.79500
C39         C  0.64042757  0.49421682  0.26781597     0.80500
N40         N  0.67306512  0.49183836  0.28214745    -0.77800
C41         C  0.69274645  0.47318625  0.31742025     0.83000
N42         N  0.67929635  0.45558534  0.33806313    -0.77700
C43         C  0.64630598  0.45740120  0.32342340     0.83000
N44         N  0.62710959  0.47734164  0.28858916    -0.79500
O45         O  0.00585161  0.53840792  0.38909811    -0.80600
O46         O  0.96888527  0.40741829  0.48413139    -0.65300
O47         O  0.99746739  0.50010098  0.44820841    -1.11900
C48         C  0.10044596  0.43893568  0.50867541     1.06300
O49         O  0.01606635  0.38794297  0.53623923    -0.78500
O50         O  0.04602673  0.46398482  0.55068423    -0.66100
Ni51       Ni  0.97006470  0.51582302  0.39387764     1.34900
C52         C  0.05423095  0.99872892  0.54266303     0.85000
O53         O  0.94173613  0.47874014  0.45199533    -0.79000
O54         O  0.92956953  0.49842528  0.39128056    -0.89300
C55         C  0.98510660  0.38608813  0.51527246     0.84600
O56         O  0.97589205  0.46282048  0.37618571    -0.67500
O57         O  0.09209120  0.42990209  0.53443192    -0.86800
C58         C  0.96726392  0.42865038  0.38463179     0.85400
C59         C  0.92108120  0.48950446  0.41694209     1.07000
H60         H  0.02123180  0.40582323  0.46063725     0.38800
O61         O  0.02410981  0.42908295  0.47789698    -1.09500
O62         O  0.05780674  0.00426774  0.51235063    -0.66100
Ni63       Ni  0.03902898  0.47615177  0.46126062     1.26300
O64         O  0.96351123  0.42430743  0.41489480    -0.66300
O65         O  0.07990709  0.45113704  0.47417255    -0.78600
C66         C  0.03657121  0.04252336  0.41107369     0.84800
O67         O  0.05285994  0.02302124  0.44338180    -0.65800
Ni68       Ni  0.05172027  0.41172738  0.53170408     1.27400
Ni69       Ni  0.98269029  0.45346709  0.46539313     1.26100
H70         H  0.00011694  0.02377539  0.46494236     0.39400
C71         C  0.37928961  0.40304486  0.65536936     0.80500
N72         N  0.39411099  0.91944066  0.63599909    -0.77800
C73         C  0.37622988  0.94019946  0.60117112     0.83000
N74         N  0.34322231  0.94377000  0.58540593    -0.77700
C75         C  0.32831585  0.42707709  0.60465051     0.83000
N76         N  0.34658759  0.40733545  0.63975250    -0.79500
C77         C  0.88412728  0.22966276  0.18174462     0.80500
N78         N  0.85145635  0.22480201  0.16604663    -0.77800
C79         C  0.83352354  0.20510961  0.13081837     0.83000
N80         N  0.84861676  0.18924997  0.11148445    -0.77700
C81         C  0.88152220  0.19337877  0.12730620     0.83000
N82         N  0.89916965  0.21425536  0.16218139    -0.79500
O83         O  0.51629241  0.28197833  0.03627893    -0.80600
O84         O  0.55658260  0.13895241  0.95384497    -0.65300
O85         O  0.52805847  0.23812535  0.98170734    -1.11900
C86         C  0.42335800  0.18247202  0.91386047     1.06300
O87         O  0.51181310  0.12645286  0.89588567    -0.78500
O88         O  0.48263174  0.20300540  0.87846911    -0.66100
Ni89       Ni  0.55298227  0.25558747  0.03617629     1.34900
C90         C  0.47321025  0.23793168  0.88443114     0.85000
O91         O  0.58576071  0.20954783  0.98592161    -0.79000
O92         O  0.59417598  0.23443591  0.04381001    -0.89300
C93         C  0.54172199  0.11991086  0.92100197     0.84600
O94         O  0.54418857  0.20487439  0.05442830    -0.67500
O95         O  0.43326562  0.17113873  0.89000192    -0.86800
C96         C  0.55230800  0.16919002  0.04814029     0.85400
C97         C  0.60474044  0.22181053  0.02104692     1.07000
H98         H  0.49989661  0.14543157  0.96738761     0.38800
O99         O  0.49959474  0.16819475  0.95098145    -1.09500
O100        O  0.46919188  0.24485950  0.91423216    -0.66100
Ni101      Ni  0.48491059  0.21723639  0.96510140     1.26300
O102        O  0.55691296  0.16144764  0.01892457    -0.66300
O103        O  0.44278466  0.19479235  0.94880819    -0.78600
C104        C  0.48595964  0.28640164  0.01222308     0.84800
O105        O  0.47082195  0.26575460  0.98039485    -0.65800
Ni106      Ni  0.47471110  0.15145764  0.89649187     1.27400
Ni107      Ni  0.54288925  0.18841615  0.96835763     1.26100
H108        H  0.52744565  0.26052934  0.96479395     0.39400
C109        C  0.14267948  0.18524036  0.75381768     0.80500
N110        N  0.12878412  0.20287717  0.77362768    -0.77800
C111        C  0.14761719  0.22163938  0.80931178     0.83000
N112        N  0.18080268  0.22149010  0.82583420    -0.77700
C113        C  0.19481011  0.20318759  0.80609390     0.83000
N114        N  0.17556704  0.18570726  0.76997878    -0.79500
C115        C  0.64501709  0.40762098  0.77174798     0.80500
N116        N  0.63110085  0.92596044  0.79127930    -0.77800
C117        C  0.64980512  0.94676704  0.82587882     0.83000
N118        N  0.68289523  0.94821978  0.84150438    -0.77700
C119        C  0.69693696  0.42944933  0.82201811     0.83000
N120        N  0.67778109  0.40986434  0.78695475    -0.79500
C121        C  0.38309349  0.50186317  0.15750399     0.80500
N122        N  0.39686352  0.48492193  0.13727245    -0.77800
C123        C  0.37808681  0.46533571  0.10211835     0.83000
N124        N  0.34509281  0.46369960  0.08662047    -0.77700
C125        C  0.33111733  0.48129755  0.10663589     0.83000
N126        N  0.35029822  0.49969181  0.14236544    -0.79500
O127        O  0.01863352  0.54015326  0.03641709    -0.80600
O128        O  0.05549751  0.40400873  0.94476664    -0.65300
O129        O  0.02729271  0.49893046  0.97859661    -1.11900
C130        C  0.92421208  0.43726440  0.91543225     1.06300
O131        O  0.01019103  0.39460400  0.88668707    -0.78500
O132        O  0.97879401  0.46872036  0.87505558    -0.66100
Ni133      Ni  0.05427722  0.51480275  0.03318617     1.34900
C134        C  0.97037281  0.00249313  0.88447441     0.85000
O135        O  0.08379505  0.47471116  0.97742582    -0.79000
O136        O  0.09473063  0.49462713  0.03761406    -0.89300
C137        C  0.04029119  0.38764696  0.91065741     0.84600
O138        O  0.04634724  0.46286026  0.05052095    -0.67500
O139        O  0.93268224  0.42975237  0.88938177    -0.86800
C140        C  0.05405497  0.42789118  0.04217258     0.85400
C141        C  0.10387958  0.48541240  0.01262530     1.07000
H142        H  0.00136630  0.40479026  0.96211672     0.38800
O143        O  0.99978059  0.42893208  0.94648037    -1.09500
O144        O  0.96664457  0.00578533  0.91484158    -0.66100
Ni145      Ni  0.98530626  0.47522949  0.96447518     1.26300
O146        O  0.05832773  0.42244452  0.01232977    -0.66300
O147        O  0.94432841  0.44991592  0.95007635    -0.78600
C148        C  0.98773281  0.04210392  0.01528157     0.84800
O149        O  0.97154444  0.02084318  0.98398302    -0.65800
Ni150      Ni  0.97356153  0.41475953  0.89151197     1.27400
Ni151      Ni  0.04200019  0.45140193  0.96212445     1.26100
H152        H  0.02517574  0.02232334  0.96189917     0.39400
C153        C  0.18534184  0.47615020  0.02829591     0.20600
C154        C  0.21035531  0.46605023  0.01973533    -0.39300
C155        C  0.24243057  0.47313160  0.05066365     0.19600
C156        C  0.24885709  0.48916217  0.08704984     0.22200
C157        C  0.22400113  0.49898718  0.09561429    -0.39800
C158        C  0.19214649  0.49185022  0.06492048     0.21000
N159        N  0.15283104  0.47221744  0.00435926    -0.33000
C160        C  0.13913247  0.48546450  0.02620036    -0.10600
C161        C  0.16290783  0.49788493  0.06403231    -0.29400
N162        N  0.28106316  0.49375268  0.11127710    -0.46000
C163        C  0.29550977  0.48046625  0.09042902    -0.05300
C164        C  0.27225039  0.46718670  0.05244796    -0.22600
H165        H  0.20524896  0.45366625  0.99121637     0.19200
H166        H  0.22910595  0.51137636  0.12413618     0.22400
H167        H  0.15927051  0.50945271  0.08786320     0.14200
H168        H  0.27656022  0.45533949  0.02922779     0.14100
H169        H  0.14077803  0.46087594  0.97526949     0.32300
H170        H  0.29250202  0.50539979  0.14026164     0.35000
C171        C  0.83773146  0.42249617  0.86704462     0.20600
C172        C  0.80671032  0.91402459  0.83493160    -0.39300
C173        C  0.78040193  0.42153548  0.84143381     0.19600
C174        C  0.78445654  0.43625277  0.87722476     0.22200
C175        C  0.81569217  0.44413367  0.90974698    -0.39800
C176        C  0.84218261  0.43674884  0.90317105     0.21000
N177        N  0.86635077  0.42000634  0.86737788    -0.33000
C178        C  0.88942491  0.43287855  0.90390642    -0.10600
C179        C  0.87536164  0.44325832  0.92731752    -0.29400
N180        N  0.75520410  0.44156550  0.87518781    -0.46000
C181        C  0.73259344  0.42990558  0.83784222    -0.05300
C182        C  0.74746596  0.91724050  0.81607467    -0.22600
H183        H  0.80326137  0.90317575  0.80661914     0.19200
H184        H  0.81908452  0.45587213  0.93776345     0.18000
H185        H  0.88759898  0.45529106  0.95735952     0.14200
H186        H  0.73569576  0.90645629  0.78560893     0.14100
H187        H  0.86986005  0.91099563  0.84378952     0.32300
H188        H  0.75090696  0.45218499  0.89773536     0.35000
C189        C  0.12291489  0.28215981  0.86778722     0.20600
C190        C  0.12628284  0.30752866  0.89924316    -0.39300
C191        C  0.09714709  0.32501018  0.89454803     0.19600
C192        C  0.06715952  0.31774224  0.86108994     0.22200
C193        C  0.06376669  0.29206369  0.83010840    -0.39800
C194        C  0.09269311  0.27460406  0.83484404     0.21000
N195        N  0.14677751  0.26349835  0.86371811    -0.33000
C196        C  0.13134258  0.24402961  0.82793416    -0.10600
C197        C  0.09766441  0.25005485  0.80935519    -0.29400
N198        N  0.04334157  0.33891132  0.86283216    -0.46000
C199        C  0.05806715  0.35984831  0.89771045    -0.05300
C200        C  0.09165948  0.35190461  0.91850514    -0.22600
H201        H  0.14982090  0.31384696  0.92499699     0.19200
H202        H  0.04035108  0.28670340  0.80382561     0.18000
H203        H  0.07932447  0.23916212  0.78032884     0.14200
H204        H  0.10962908  0.36463531  0.94688911     0.14100
H205        H  0.17189448  0.26464037  0.88354262     0.32300
H206        H  0.01857378  0.33928754  0.84141515     0.35000
C207        C  0.28217346  0.20284172  0.86489928     0.20600
C208        C  0.31308181  0.20847758  0.89859520    -0.39300
C209        C  0.33993383  0.19616750  0.89439417     0.19600
C210        C  0.33617098  0.17950473  0.85935400     0.22200
C211        C  0.30538659  0.17358501  0.82591117    -0.39800
C212        C  0.27868347  0.18596114  0.83007764     0.21000
N213        N  0.25274431  0.21197819  0.86096625    -0.33000
C214        C  0.23053758  0.20063664  0.82338073    -0.10600
C215        C  0.24585829  0.18440580  0.80329569    -0.29400
N216        N  0.36531341  0.17169492  0.86226677    -0.46000
C217        C  0.38795867  0.18348620  0.89940970    -0.05300
C218        C  0.37309939  0.19874756  0.92049462    -0.22600
H219        H  0.31602418  0.22179333  0.92587712     0.19200
H220        H  0.30245355  0.16069987  0.79847615     0.18000
H221        H  0.23445026  0.17264385  0.77316933     0.14200
H222        H  0.38495790  0.21117070  0.95039206     0.14100
H223        H  0.24805958  0.22463775  0.88254349     0.32300
H224        H  0.36952751  0.15982453  0.84003477     0.35000
C225        C  0.56889228  0.04351511  0.87685026     0.20600
C226        C  0.56553591  0.01578917  0.84719036    -0.39300
C227        C  0.59466093  0.99936169  0.85156467     0.19600
C228        C  0.62501573  0.00957793  0.88309793     0.22200
C229        C  0.62836344  0.03681191  0.91341906    -0.39800
C230        C  0.59903221  0.05343785  0.90898314     0.21000
N231        N  0.54493399  0.06523981  0.87774809    -0.33000
C232        C  0.55967266  0.08937943  0.91065149    -0.10600
C233        C  0.59345891  0.08264589  0.93125439    -0.29400
N234        N  0.64895282  0.99150434  0.87874972    -0.46000
C235        C  0.63347301  0.96970691  0.84422499    -0.05300
C236        C  0.59966026  0.97376243  0.82668231    -0.22600
H237        H  0.54198347  0.00856793  0.82181389     0.19200
H238        H  0.65201911  0.04540487  0.93790143     0.18000
H239        H  0.61153770  0.09817993  0.95794171     0.14200
H240        H  0.58119097  0.96088786  0.79865686     0.14100
H241        H  0.52007839  0.06434457  0.85668908     0.32300
H242        H  0.67413656  0.99448944  0.89756805     0.35000
C243        C  0.45866485  0.36533092  0.05377756     0.20600
C244        C  0.46210786  0.39622673  0.08104145    -0.39300
C245        C  0.43292892  0.41253421  0.07657464     0.19600
C246        C  0.40250191  0.39916962  0.04724153     0.22200
C247        C  0.39903981  0.36854364  0.01948443    -0.39800
C248        C  0.42837511  0.35213682  0.02395430     0.21000
N249        N  0.48275888  0.34385362  0.05298663    -0.33000
C250        C  0.46787741  0.31676360  0.02237540    -0.10600
C251        C  0.43390491  0.32101200  0.00336787    -0.29400
N252        N  0.37864353  0.41758811  0.05137621    -0.46000
C253        C  0.39422552  0.44257981  0.08367328    -0.05300
C254        C  0.42801948  0.44052052  0.09986155    -0.22600
H255        H  0.48578960  0.40603178  0.10471337     0.19200
H256        H  0.37534196  0.35749898  0.99686187     0.18000
H257        H  0.41577573  0.30309645  0.97856122     0.14200
H258        H  0.44657644  0.45581276  0.12638146     0.14100
H259        H  0.50782909  0.34716505  0.07239409     0.32300
H260        H  0.35351226  0.41232667  0.03428114     0.35000
C261        C  0.75017275  0.21550834  0.10607694     0.20600
C262        C  0.72441101  0.22829238  0.11194679    -0.39300
C263        C  0.69305559  0.22278609  0.07955103     0.19600
C264        C  0.68759910  0.20564104  0.04395136     0.22200
C265        C  0.71350242  0.19262880  0.03810799    -0.39800
C266        C  0.74505073  0.19828936  0.07063415     0.21000
N267        N  0.78216869  0.21891802  0.13196897    -0.33000
C268        C  0.79777799  0.20391734  0.11306674    -0.10600
C269        C  0.77548128  0.19047042  0.07473374    -0.29400
N270        N  0.65533117  0.20355891  0.01798487    -0.46000
C271        C  0.64036292  0.21956073  0.03739498    -0.05300
C272        C  0.66313082  0.23189189  0.07579056    -0.22600
H273        H  0.72851150  0.24189911  0.13964277     0.19200
H274        H  0.70941737  0.17938640  0.01029239     0.18000
H275        H  0.78080508  0.17794239  0.05255605     0.14200
H276        H  0.65838394  0.24522792  0.09816433     0.14100
H277        H  0.79272997  0.23153709  0.16054977     0.32300
H278        H  0.64420793  0.19161954  0.98912356     0.35000
C279        C  0.96142544  0.11255848  0.06521150     0.20600
C280        C  0.96518759  0.13995566  0.09540858    -0.39300
C281        C  0.93626795  0.15154986  0.09494382     0.19600
C282        C  0.90589988  0.13709302  0.06646189     0.22200
C283        C  0.90208835  0.11008100  0.03591318    -0.39800
C284        C  0.93106257  0.09834473  0.03646485     0.21000
N285        N  0.98528193  0.09513242  0.06059626    -0.33000
C286        C  0.97008143  0.06956217  0.02872141    -0.10600
C287        C  0.93620240  0.07088910  0.01266583    -0.29400
N288        N  0.88244502  0.15100299  0.07381371    -0.46000
C289        C  0.89802441  0.17430747  0.10730768    -0.05300
C290        C  0.93160556  0.17558883  0.12122118    -0.22600
H291        H  0.98897018  0.15051375  0.11825184     0.19200
H292        H  0.87842917  0.09817511  0.01402508     0.18000
H293        H  0.91795310  0.05300766  0.98793087     0.14200
H294        H  0.95019761  0.19090547  0.14768667     0.14100
H295        H  0.01042423  0.59963375  0.07862627     0.32300
H296        H  0.85749155  0.14422318  0.05758609     0.35000
C297        C  0.41146530  0.35865465  0.75191068     0.20600
C298        C  0.41217443  0.34915828  0.78770133    -0.39300
C299        C  0.43556303  0.31975172  0.81175005     0.19600
C300        C  0.45635291  0.30087015  0.80068380     0.22200
C301        C  0.45630968  0.31133745  0.76543460    -0.39800
C302        C  0.43314032  0.34112282  0.74155602     0.21000
N303        N  0.38997439  0.38321912  0.72271297    -0.33000
C304        C  0.39820750  0.38184218  0.69373269    -0.10600
C305        C  0.42523775  0.35621755  0.70449261    -0.29400
N306        N  0.47357267  0.27048733  0.82626725    -0.46000
C307        C  0.46383710  0.27022581  0.85392456    -0.05300
C308        C  0.44052505  0.30095033  0.84624046    -0.22600
H309        H  0.39490852  0.36244086  0.79548697     0.19200
H310        H  0.47221804  0.29616220  0.75648178     0.18000
H311        H  0.43650526  0.34816569  0.68681571     0.14200
H312        H  0.42719330  0.30653757  0.86199191     0.14100
H313        H  0.37055361  0.39951037  0.72224606     0.32300
H314        H  0.48995066  0.25008651  0.82415756     0.35000
C315        C  0.18708520  0.42605603  0.55784678     0.20600
C316        C  0.21766333  0.41501817  0.58936475    -0.39300
C317        C  0.24442312  0.42363663  0.58413203     0.19600
C318        C  0.24128167  0.44202987  0.55014839     0.22200
C319        C  0.21044310  0.45322972  0.51835416    -0.39800
C320        C  0.18339708  0.44435923  0.52354140     0.21000
N321        N  0.15814127  0.42142950  0.55626707    -0.33000
C322        C  0.13547739  0.43678954  0.52071433    -0.10600
C323        C  0.15022423  0.45131154  0.49921189    -0.29400
N324        N  0.27087162  0.44632293  0.55281191    -0.46000
C325        C  0.29268752  0.43029977  0.58872104    -0.05300
C326        C  0.27699353  0.91605049  0.60895797    -0.22600
H327        H  0.22042163  0.90068040  0.61611586     0.19200
H328        H  0.20770529  0.46763522  0.49164703     0.18000
H329        H  0.13839282  0.46571908  0.47021093     0.14200
H330        H  0.28796505  0.90163836  0.63794469     0.14100
H331        H  0.15410671  0.90892047  0.57837177     0.32300
H332        H  0.27586029  0.45889546  0.53150636     0.35000
C333        C  0.08471018  0.08810469  0.60468217     0.20600
C334        C  0.10553954  0.12215839  0.62206956    -0.39300
C335        C  0.10761645  0.13710422  0.65723879     0.19600
C336        C  0.08947149  0.12037906  0.67320493     0.22200
C337        C  0.06798424  0.08693069  0.65523619    -0.39800
C338        C  0.06675517  0.07105197  0.62074715     0.21000
N339        N  0.08134247  0.06543704  0.57374366    -0.33000
C340        C  0.06159771  0.03330507  0.57053643    -0.10600
C341        C  0.05181911  0.03581147  0.59914547    -0.29400
N342        N  0.09825398  0.13745195  0.70878893    -0.46000
C343        C  0.12264939  0.16437653  0.71574310    -0.05300
C344        C  0.12900484  0.16530989  0.68423832    -0.22600
H345        H  0.12067336  0.13430737  0.61054066     0.19200
H346        H  0.05489706  0.07257802  0.66855989     0.18000
H347        H  0.03700947  0.01382174  0.60449561     0.14200
H348        H  0.14804859  0.18246078  0.68246649     0.14100
H349        H  0.09298412  0.07040816  0.55704405     0.32300
H350        H  0.08971519  0.12940521  0.72821123     0.35000
C351        C  0.93607927  0.33818352  0.32427431     0.20600
C352        C  0.91543867  0.30373502  0.30785410    -0.39300
C353        C  0.91423622  0.28670537  0.27379566     0.19600
C354        C  0.93280447  0.30211176  0.25787404     0.22200
C355        C  0.95362662  0.33641756  0.27448505    -0.39800
C356        C  0.95423853  0.35407827  0.30800312     0.21000
N357        N  0.93954903  0.36183822  0.35472645    -0.33000
C358        C  0.95955143  0.39343372  0.35735117    -0.10600
C359        C  0.96937463  0.38960234  0.32887780    -0.29400
N360        N  0.92579287  0.28201918  0.22410559    -0.46000
C361        C  0.90215392  0.25426058  0.21816577    -0.05300
C362        C  0.89435141  0.25615942  0.24852992    -0.22600
H363        H  0.90031136  0.29223979  0.31965104     0.19200
H364        H  0.96720611  0.34952692  0.26124508     0.18000
H365        H  0.98456351  0.41075185  0.32332627     0.14200
H366        H  0.87561765  0.23881657  0.25080736     0.14100
H367        H  0.92794822  0.35773278  0.37158907     0.32300
H368        H  0.93520519  0.28827516  0.20520006     0.35000
C369        C  0.78044519  0.46979492  0.37255376     0.20600
C370        C  0.81177543  0.46328060  0.40531934    -0.39300
C371        C  0.83822601  0.47582598  0.40035185     0.19600
C372        C  0.83368259  0.49324489  0.36532633     0.22200
C373        C  0.80249079  0.49973011  0.33268445    -0.39800
C374        C  0.77618580  0.48737878  0.33772252     0.21000
N375        N  0.75128813  0.46146415  0.36983048    -0.33000
C376        C  0.72843043  0.47405662  0.33302489    -0.10600
C377        C  0.74311507  0.49020881  0.31218659    -0.29400
N378        N  0.86251753  0.50131274  0.36743212    -0.46000
C379        C  0.88581622  0.48899669  0.40405102    -0.05300
C380        C  0.87161455  0.47311657  0.42562538    -0.22600
H381        H  0.81530075  0.44949394  0.43262772     0.19200
H382        H  0.79895813  0.51334304  0.30529856     0.18000
H383        H  0.73115259  0.50305202  0.28251000     0.14200
H384        H  0.88400816  0.46008223  0.45521135     0.14100
H385        H  0.74720672  0.44872504  0.39180647     0.32300
H386        H  0.86610839  0.51366711  0.34493214     0.35000
C387        C  0.60347253  0.53841373  0.17137901     0.20600
C388        C  0.59982904  0.04625845  0.13382707    -0.39300
C389        C  0.58094328  0.08105079  0.11417228     0.19600
C390        C  0.56691439  0.10623418  0.13077751     0.22200
C391        C  0.56965676  0.09757175  0.16780064    -0.39800
C392        C  0.58838936  0.06256502  0.18738769     0.21000
N393        N  0.62305127  0.51005415  0.19767697    -0.33000
C394        C  0.62012733  0.51587789  0.23042044    -0.10600
C395        C  0.59843356  0.04794374  0.22510994    -0.29400
N396        N  0.55355295  0.14008059  0.10835278    -0.46000
C397        C  0.55913591  0.13631449  0.07732341    -0.05300
C398        C  0.57570030  0.09960384  0.07957135    -0.22600
H399        H  0.61220636  0.52792848  0.12173298     0.19200
H400        H  0.55939721  0.11778666  0.18124741     0.18000
H401        H  0.59272577  0.06072399  0.24687898     0.14200
H402        H  0.58476888  0.08943982  0.06008981     0.14100
H403        H  0.63830189  0.48892092  0.19411749     0.32300
H404        H  0.54259886  0.16502080  0.11466395     0.35000
C405        C  0.10600673  0.29134073  0.15929982     0.20600
C406        C  0.10374163  0.30280915  0.12316633    -0.39300
C407        C  0.08343633  0.33671325  0.10405519     0.19600
C408        C  0.06670488  0.35779851  0.11978470     0.22200
C409        C  0.06781079  0.34511845  0.15515017    -0.39800
C410        C  0.08815114  0.31100358  0.17430254     0.21000
N411        N  0.12633375  0.26307936  0.18501688    -0.33000
C412        C  0.12116692  0.26425399  0.21643977    -0.10600
C413        C  0.09723869  0.29336868  0.21077334    -0.29400
N414        N  0.05277756  0.39235454  0.09871071    -0.46000
C415        C  0.06074689  0.39299879  0.06945937    -0.05300
C416        C  0.07929206  0.35843093  0.07139474    -0.22600
H417        H  0.11820338  0.28793651  0.11189758     0.19200
H418        H  0.05529101  0.36198240  0.16795121     0.18000
H419        H  0.08913314  0.30216440  0.23154093     0.14200
H420        H  0.09042956  0.35187768  0.05325905     0.14100
H421        H  0.14323925  0.24472612  0.18181595     0.32300
H422        H  0.03990500  0.41495041  0.10484534     0.35000
C423        C  0.09081432  0.15569377  0.33642019     0.20600
C424        C  0.06070560  0.14378982  0.33252761    -0.39300
C425        C  0.06236595  0.11617094  0.36136798     0.19600
C426        C  0.09173783  0.10183978  0.39210438     0.22200
C427        C  0.12192347  0.11426465  0.39633979    -0.39800
C428        C  0.12025848  0.14152543  0.36714811     0.21000
N429        N  0.09570502  0.17947383  0.31137470    -0.33000
C430        C  0.12849880  0.18022574  0.32606523    -0.10600
C431        C  0.14466371  0.15712116  0.36095341    -0.29400
N432        N  0.08651128  0.07430825  0.41449118    -0.46000
C433        C  0.05355733  0.07098313  0.39757748    -0.05300
C434        C  0.03774515  0.09673359  0.36452401    -0.22600
H435        H  0.03764857  0.15416167  0.30808522     0.19200
H436        H  0.14493509  0.10252663  0.41983099     0.18000
H437        H  0.17065652  0.15136650  0.37861814     0.14200
H438        H  0.01169212  0.59998185  0.34483784     0.14100
H439        H  0.07777344  0.19333055  0.28530052     0.32300
H440        H  0.10419057  0.05810786  0.43909279     0.35000
C441        C  0.33696459  0.20108009  0.38183727     0.20600
C442        C  0.31080983  0.18694416  0.38661476    -0.39300
C443        C  0.27938578  0.19699755  0.35574223     0.19600
C444        C  0.27453129  0.21921527  0.32268678     0.22200
C445        C  0.30057714  0.23272494  0.31764113    -0.39800
C446        C  0.33187098  0.22285962  0.34846894     0.21000
N447        N  0.36917102  0.19681164  0.40732459    -0.33000
C448        C  0.38453888  0.21603468  0.38990343    -0.10600
C449        C  0.36205517  0.23242613  0.35310359    -0.29400
N450        N  0.24261524  0.22654843  0.29847122    -0.46000
C451        C  0.22685294  0.20901538  0.31612284    -0.05300
C452        C  0.24894482  0.18999202  0.35183324    -0.22600
H453        H  0.31464818  0.17013806  0.41275327     0.19200
H454        H  0.29676701  0.25039334  0.29194723     0.18000
H455        H  0.36714025  0.24940832  0.33264269     0.14200
H456        H  0.24354536  0.17432633  0.37265191     0.14100
H457        H  0.38000456  0.18178522  0.43477574     0.32300
H458        H  0.23226186  0.24326962  0.27193371     0.35000
C459        C  0.56664007  0.30083634  0.63038322     0.20600
C460        C  0.56797581  0.31151180  0.66639148    -0.39300
C461        C  0.58997952  0.34341886  0.68821089     0.19600
C462        C  0.60932612  0.36271150  0.67520247     0.22200
C463        C  0.60697068  0.35329258  0.63854459    -0.39800
C464        C  0.58483325  0.32177859  0.61665181     0.21000
N465        N  0.55080583  0.26848850  0.60651106    -0.33000
C466        C  0.55886503  0.26926030  0.57734429    -0.10600
C467        C  0.57958938  0.30241712  0.58233480    -0.29400
N468        N  0.63088870  0.38844672  0.70311024    -0.46000
C469        C  0.62498378  0.38609311  0.73391212    -0.05300
C470        C  0.59936095  0.35877531  0.72566867    -0.22600
H471        H  0.55420162  0.29480710  0.67754607     0.19200
H472        H  0.62248154  0.36792752  0.62872821     0.18000
H473        H  0.59129383  0.30937909  0.56493386     0.14200
H474        H  0.59025779  0.34956680  0.74532347     0.14100
H475        H  0.53651596  0.24636353  0.61065580     0.32300
H476        H  0.64899126  0.40593961  0.70166552     0.35000
C477        C  0.42091678  0.04112107  0.25608171     0.20600
C478        C  0.42406878  0.04852457  0.29343530    -0.39300
C479        C  0.44549869  0.08057186  0.31542381     0.19600
C480        C  0.46251486  0.10356379  0.30129421     0.22200
C481        C  0.46077662  0.09454229  0.26481125    -0.39800
C482        C  0.43925731  0.06242054  0.24273770     0.21000
N483        N  0.39895430  0.51630965  0.22754345    -0.33000
C484        C  0.40361157  0.52148980  0.19602743    -0.10600
C485        C  0.42886138  0.54939633  0.20441827    -0.29400
N486        N  0.47689236  0.13661238  0.32479434    -0.46000
C487        C  0.46893729  0.13435674  0.35397466    -0.05300
C488        C  0.44999900  0.09940866  0.34958969    -0.22600
H489        H  0.40915340  0.03258114  0.30341117     0.19200
H490        H  0.47337663  0.11307155  0.25321099     0.18000
H491        H  0.43689115  0.56069313  0.18430499     0.14200
H492        H  0.43848376  0.09116689  0.36692630     0.14100
H493        H  0.38132170  0.49780932  0.22900743     0.32300
H494        H  0.48975633  0.16033484  0.32009191     0.35000
C495        C  0.45712588  0.03947297  0.55204708     0.20600
C496        C  0.46083616  0.01056457  0.58099061    -0.39300
C497        C  0.43188946  0.99281290  0.57611593     0.19600
C498        C  0.40147499  0.00309814  0.54481697     0.22200
C499        C  0.39780562  0.03152497  0.51532780    -0.39800
C500        C  0.42687215  0.04936329  0.52021729     0.21000
N501        N  0.48078634  0.06213472  0.55140790    -0.33000
C502        C  0.46572068  0.08672472  0.51892480    -0.10600
C503        C  0.43200906  0.07952319  0.49846255    -0.29400
N504        N  0.37765906  0.98438951  0.54882870    -0.46000
C505        C  0.39309462  0.96216469  0.58296258    -0.05300
C506        C  0.42694841  0.96631599  0.60051657    -0.22600
H507        H  0.48447604  0.00342484  0.60619443     0.19200
H508        H  0.37404057  0.04013217  0.49114054     0.18000
H509        H  0.41371506  0.09510365  0.47205227     0.14200
H510        H  0.44539526  0.95349707  0.62850461     0.14100
H511        H  0.50569941  0.06133882  0.57223719     0.32300
H512        H  0.35247334  0.98770441  0.53025721     0.35000
C513        C  0.56704108  0.36693481  0.38049326     0.20600
C514        C  0.56350895  0.39730831  0.35283261    -0.39300
C515        C  0.59253515  0.41091043  0.35477207     0.19600
C516        C  0.62291887  0.39580527  0.38240136     0.22200
C517        C  0.62653388  0.36612088  0.41090619    -0.39800
C518        C  0.59734683  0.35216808  0.40875381     0.21000
N519        N  0.54294067  0.34641088  0.38217784    -0.33000
C520        C  0.55781099  0.31824241  0.41168786    -0.10600
C521        C  0.59181847  0.32113895  0.42937198    -0.29400
N522        N  0.64639127  0.41142385  0.37578371    -0.46000
C523        C  0.63066785  0.43640518  0.34359446    -0.05300
C524        C  0.59712022  0.43705876  0.32995521    -0.22600
H525        H  0.53975747  0.40814170  0.33023135     0.19200
H526        H  0.65013883  0.35349067  0.43200329     0.18000
H527        H  0.60990398  0.30172132  0.45263373     0.14200
H528        H  0.57838331  0.45304381  0.30417804     0.14100
H529        H  0.51783425  0.35051616  0.36356029     0.32300
H530        H  0.67132021  0.40444195  0.39131209     0.35000
C531        C  0.68421646  0.20647980  0.54183004     0.20600
C532        C  0.70929487  0.22127216  0.53521989    -0.39300
C533        C  0.74114020  0.21862169  0.56776802     0.19600
C534        C  0.74724468  0.20260840  0.60394910     0.22200
C535        C  0.72225013  0.18826554  0.61063368    -0.39800
C536        C  0.69061269  0.19065222  0.57817909     0.21000
N537        N  0.65193215  0.20551590  0.51593785    -0.33000
C538        C  0.63785407  0.18891110  0.53608972    -0.10600
C539        C  0.66122718  0.17921460  0.57495608    -0.29400
N540        N  0.77940848  0.20156023  0.62959060    -0.46000
C541        C  0.79420372  0.21683662  0.60984232    -0.05300
C542        C  0.77111973  0.22820720  0.57116221    -0.22600
H543        H  0.70441569  0.23344028  0.50677365     0.19200
H544        H  0.72715432  0.17557549  0.63891717     0.18000
H545        H  0.65718954  0.16625079  0.59796850     0.14200
H546        H  0.77568700  0.24026768  0.54826535     0.14100
H547        H  0.64018321  0.21601821  0.48661585     0.32300
H548        H  0.79064975  0.19008345  0.65857100     0.35000
C549        C  0.93463311  0.12983924  0.75865986     0.20600
C550        C  0.95795514  0.09834881  0.77733901    -0.39300
C551        C  0.95820782  0.07971957  0.81026591     0.19600
C552        C  0.93760330  0.09254750  0.82429011     0.22200
C553        C  0.91483245  0.12457093  0.80616865    -0.39800
C554        C  0.91379049  0.14213458  0.77250165     0.21000
N555        N  0.92689945  0.14907619  0.72432504    -0.33000
C556        C  0.90052983  0.17297112  0.71597073    -0.10600
C557        C  0.89176551  0.16963407  0.74538909    -0.29400
N558        N  0.94066118  0.06787813  0.85383580    -0.46000
C559        C  0.96279818  0.03850810  0.85812303    -0.05300
C560        C  0.97452190  0.04498525  0.83170314    -0.22600
H561        H  0.97330089  0.08738921  0.76561577     0.19200
H562        H  0.89774134  0.13332362  0.81603669     0.18000
H563        H  0.87105539  0.18383277  0.74582076     0.14200
H564        H  0.99145762  0.02572595  0.82747838     0.14100
H565        H  0.93769058  0.14451424  0.70660137     0.32300
H566        H  0.92722510  0.06956844  0.86871952     0.35000
C567        C  0.90240665  0.29019115  0.56442818     0.20600
C568        C  0.89900806  0.31877346  0.53530143    -0.39300
C569        C  0.92803755  0.32993825  0.53573693     0.19600
C570        C  0.95812369  0.31374365  0.56302220     0.22200
C571        C  0.96146598  0.28468109  0.59174612    -0.39800
C572        C  0.93246968  0.27373134  0.59145628     0.21000
N573        N  0.87886528  0.27645048  0.57171034    -0.33000
C574        C  0.89409427  0.25125536  0.60375355    -0.10600
C575        C  0.92751330  0.24862378  0.61675974    -0.29400
N576        N  0.98216499  0.33104392  0.55865941    -0.46000
C577        C  0.96731082  0.35848232  0.52838913    -0.05300
C578        C  0.93351201  0.35848344  0.51315484    -0.22600
H579        H  0.87563120  0.33225560  0.51458851     0.19200
H580        H  0.98502656  0.27247370  0.61348768     0.18000
H581        H  0.94586400  0.23165772  0.64207862     0.14200
H582        H  0.91554325  0.37784118  0.48971105     0.14100
H583        H  0.85414555  0.28457074  0.55647319     0.32300
H584        H  0.00719836  0.32514813  0.57575198     0.35000
C585        C  0.88141734  0.69547972  0.67852998     0.80500
N586        N  0.89591147  0.71159213  0.65871969    -0.77800
C587        C  0.87771055  0.73154055  0.62358315     0.83000
N588        N  0.84464547  0.73414073  0.60767749    -0.77700
C589        C  0.83002729  0.71743053  0.62726554     0.83000
N590        N  0.84861267  0.69865557  0.66277130    -0.79500
O591        O  0.50962429  0.78161484  0.39585991    -0.80600
O592        O  0.46858727  0.63691497  0.47597160    -0.65300
O593        O  0.49679759  0.73676221  0.44883002    -1.11900
C594        C  0.60237897  0.68448568  0.51982543     1.06300
O595        O  0.51329560  0.62427127  0.53395091    -0.78500
O596        O  0.54214544  0.70098966  0.55352376    -0.66100
Ni597      Ni  0.47276873  0.75365364  0.39422085     1.34900
C598        C  0.55047432  0.73653716  0.54734895     0.85000
O599        O  0.43880630  0.70683356  0.44250741    -0.79000
O600        O  0.43141730  0.73112405  0.38493749    -0.89300
C601        C  0.48343142  0.61773657  0.50871875     0.84600
O602        O  0.48332820  0.70322269  0.37704438    -0.67500
O603        O  0.59193497  0.67108542  0.54246791    -0.86800
C604        C  0.47514340  0.66742470  0.38291986     0.85400
C605        C  0.42027011  0.71852055  0.40708522     1.07000
H606        H  0.52626396  0.64503705  0.46371086     0.38800
O607        O  0.52597662  0.66748141  0.48016844    -1.09500
O608        O  0.55430410  0.74425753  0.51756838    -0.66100
Ni609      Ni  0.54049126  0.71715930  0.46692526     1.26300
O610        O  0.46954308  0.65969185  0.41134661    -0.66300
O611        O  0.58331948  0.69633180  0.48468660    -0.78600
C612        C  0.53964621  0.78709090  0.42092376     0.84800
O613        O  0.55446301  0.76654839  0.45277074    -0.65800
Ni614      Ni  0.55046719  0.65019374  0.53456047     1.27400
Ni615      Ni  0.48217646  0.68669427  0.46164208     1.26100
H616        H  0.49661462  0.75917592  0.46537542     0.39400
C617        C  0.14043336  0.73987164  0.25259671     0.80500
N618        N  0.17286142  0.73416763  0.26632226    -0.77800
C619        C  0.19128870  0.71238596  0.30014655     0.83000
N620        N  0.17689982  0.69546486  0.31982404    -0.77700
C621        C  0.14433071  0.70057145  0.30596572     0.83000
N622        N  0.12621744  0.72321201  0.27255005    -0.79500
C623        C  0.64042758  0.99421683  0.26781596     0.80500
N624        N  0.67306513  0.99183836  0.28214744    -0.77800
C625        C  0.69274645  0.97318623  0.31742024     0.83000
N626        N  0.67929635  0.95558533  0.33806312    -0.77700
C627        C  0.64630598  0.95740121  0.32342338     0.83000
N628        N  0.62710959  0.97734165  0.28858914    -0.79500
O629        O  0.00585162  0.03840793  0.38909812    -0.80600
O630        O  0.96888525  0.90741829  0.48413137    -0.65300
O631        O  0.99746740  0.00010098  0.44820841    -1.11900
C632        C  0.10044596  0.93893570  0.50867542     1.06300
O633        O  0.01606634  0.88794290  0.53623916    -0.78500
O634        O  0.04602667  0.96398482  0.55068416    -0.66100
Ni635      Ni  0.97006471  0.01582301  0.39387763     1.34900
C636        C  0.05423097  0.49872893  0.54266306     0.85000
O637        O  0.94173613  0.97874016  0.45199532    -0.79000
O638        O  0.92956954  0.99842525  0.39128054    -0.89300
C639        C  0.98510658  0.88608808  0.51527240     0.84600
O640        O  0.97589211  0.96282048  0.37618575    -0.67500
O641        O  0.09209119  0.92990213  0.53443192    -0.86800
C642        C  0.96726395  0.92865039  0.38463180     0.85400
C643        C  0.92108120  0.98950446  0.41694207     1.07000
H644        H  0.02123179  0.90582322  0.46063722     0.38800
O645        O  0.02410980  0.92908294  0.47789696    -1.09500
O646        O  0.05780673  0.50426776  0.51235064    -0.66100
Ni647      Ni  0.03902898  0.97615176  0.46126061     1.26300
O648        O  0.96351122  0.92430744  0.41489479    -0.66300
O649        O  0.07990709  0.95113702  0.47417255    -0.78600
C650        C  0.03657121  0.54252336  0.41107368     0.84800
O651        O  0.05285994  0.52302125  0.44338181    -0.65800
Ni652      Ni  0.05172026  0.91172737  0.53170404     1.27400
Ni653      Ni  0.98269029  0.95346709  0.46539312     1.26100
H654        H  0.00011692  0.52377539  0.46494236     0.39400
C655        C  0.37928961  0.90304482  0.65536938     0.80500
N656        N  0.39411098  0.41944070  0.63599907    -0.77800
C657        C  0.37622988  0.44019948  0.60117109     0.83000
N658        N  0.34322231  0.44377001  0.58540589    -0.77700
C659        C  0.32831586  0.92707709  0.60465055     0.83000
N660        N  0.34658759  0.90733543  0.63975253    -0.79500
C661        C  0.88412726  0.72966276  0.18174457     0.80500
N662        N  0.85145632  0.72480204  0.16604655    -0.77800
C663        C  0.83352353  0.70510967  0.13081827     0.83000
N664        N  0.84861675  0.68925004  0.11148435    -0.77700
C665        C  0.88152220  0.69337880  0.12730614     0.83000
N666        N  0.89916964  0.71425535  0.16218136    -0.79500
O667        O  0.51629239  0.78197821  0.03627896    -0.80600
O668        O  0.55658261  0.63895241  0.95384497    -0.65300
O669        O  0.52805847  0.73812533  0.98170736    -1.11900
C670        C  0.42335800  0.68247204  0.91386046     1.06300
O671        O  0.51181309  0.62645284  0.89588568    -0.78500
O672        O  0.48263178  0.70300542  0.87846914    -0.66100
Ni673      Ni  0.55298227  0.75558744  0.03617631     1.34900
C674        C  0.47321029  0.73793170  0.88443117     0.85000
O675        O  0.58576072  0.70954782  0.98592162    -0.79000
O676        O  0.59417598  0.73443594  0.04381002    -0.89300
C677        C  0.54172198  0.61991085  0.92100198     0.84600
O678        O  0.54418860  0.70487434  0.05442832    -0.67500
O679        O  0.43326563  0.67113882  0.89000189    -0.86800
C680        C  0.55230806  0.66918999  0.04814032     0.85400
C681        C  0.60474044  0.72181054  0.02104693     1.07000
H682        H  0.49989661  0.64543155  0.96738760     0.38800
O683        O  0.49959475  0.66819474  0.95098145    -1.09500
O684        O  0.46919189  0.74485949  0.91423217    -0.66100
Ni685      Ni  0.48491059  0.71723637  0.96510140     1.26300
O686        O  0.55691299  0.66144761  0.01892457    -0.66300
O687        O  0.44278467  0.69479232  0.94880820    -0.78600
C688        C  0.48595963  0.78640156  0.01222310     0.84800
O689        O  0.47082195  0.76575458  0.98039483    -0.65800
Ni690      Ni  0.47471110  0.65145767  0.89649186     1.27400
Ni691      Ni  0.54288925  0.68841614  0.96835764     1.26100
H692        H  0.52744566  0.76052933  0.96479397     0.39400
C693        C  0.14267950  0.68524047  0.75381764     0.80500
N694        N  0.12878413  0.70287725  0.77362764    -0.77800
C695        C  0.14761719  0.72163951  0.80931172     0.83000
N696        N  0.18080268  0.72149027  0.82583413    -0.77700
C697        C  0.19481012  0.70318778  0.80609383     0.83000
N698        N  0.17556706  0.68570742  0.76997872    -0.79500
C699        C  0.64501708  0.90762097  0.77174799     0.80500
N700        N  0.63110086  0.42596045  0.79127931    -0.77800
C701        C  0.64980514  0.44676704  0.82587882     0.83000
N702        N  0.68289524  0.44821979  0.84150438    -0.77700
C703        C  0.69693695  0.92944931  0.82201812     0.83000
N704        N  0.67778108  0.90986432  0.78695476    -0.79500
C705        C  0.38309346  0.00186318  0.15750393     0.80500
N706        N  0.39686350  0.98492194  0.13727240    -0.77800
C707        C  0.37808679  0.96533572  0.10211829     0.83000
N708        N  0.34509279  0.96369962  0.08662041    -0.77700
C709        C  0.33111730  0.98129757  0.10663583     0.83000
N710        N  0.35029819  0.99969182  0.14236538    -0.79500
O711        O  0.01863351  0.04015325  0.03641709    -0.80600
O712        O  0.05549753  0.90400873  0.94476667    -0.65300
O713        O  0.02729270  0.99893043  0.97859663    -1.11900
C714        C  0.92421207  0.93726435  0.91543226     1.06300
O715        O  0.01019106  0.89460399  0.88668710    -0.78500
O716        O  0.97879402  0.96872037  0.87505562    -0.66100
Ni717      Ni  0.05427721  0.01480273  0.03318619     1.34900
C718        C  0.97037282  0.50249313  0.88447438     0.85000
O719        O  0.08379503  0.97471117  0.97742585    -0.79000
O720        O  0.09473062  0.99462709  0.03761410    -0.89300
C721        C  0.04029122  0.88764695  0.91065745     0.84600
O722        O  0.04634721  0.96286024  0.05052096    -0.67500
O723        O  0.93268224  0.92975236  0.88938177    -0.86800
C724        C  0.05405493  0.92789115  0.04217257     0.85400
C725        C  0.10387956  0.98541239  0.01262534     1.07000
H726        H  0.00136630  0.90479021  0.96211672     0.38800
O727        O  0.99978060  0.92893205  0.94648039    -1.09500
O728        O  0.96664459  0.50578536  0.91484155    -0.66100
Ni729      Ni  0.98530625  0.97522943  0.96447520     1.26300
O730        O  0.05832772  0.92244451  0.01232978    -0.66300
O731        O  0.94432841  0.94991583  0.95007637    -0.78600
C732        C  0.98773282  0.54210397  0.01528155     0.84800
O733        O  0.97154446  0.52084329  0.98398297    -0.65800
Ni734      Ni  0.97356153  0.91475953  0.89151198     1.27400
Ni735      Ni  0.04200018  0.95140192  0.96212447     1.26100
H736        H  0.02517578  0.52232336  0.96189915     0.39400
C737        C  0.18534181  0.97615016  0.02829593     0.20600
C738        C  0.21035527  0.96605016  0.01973535    -0.39300
C739        C  0.24243054  0.97313160  0.05066365     0.19600
C740        C  0.24885707  0.98916228  0.08704980     0.22200
C741        C  0.22400110  0.99898732  0.09561425    -0.39800
C742        C  0.19214647  0.99185027  0.06492048     0.21000
N743        N  0.15283102  0.97221737  0.00435930    -0.33000
C744        C  0.13913245  0.98546449  0.02620039    -0.10600
C745        C  0.16290780  0.99788499  0.06403232    -0.29400
N746        N  0.28106314  0.99375282  0.11127704    -0.46000
C747        C  0.29550974  0.98046630  0.09042898    -0.05300
C748        C  0.27225035  0.96718667  0.05244796    -0.22600
H749        H  0.20524892  0.95366611  0.99121641     0.19200
H750        H  0.22910593  0.01137658  0.12413611     0.22400
H751        H  0.15927049  0.00945283  0.08786320     0.14200
H752        H  0.27656018  0.95533937  0.02922781     0.14100
H753        H  0.14077801  0.96087582  0.97526955     0.32300
H754        H  0.29250201  0.00540001  0.14026155     0.35000
C755        C  0.83773145  0.92249620  0.86704461     0.20600
C756        C  0.80671034  0.41402453  0.83493160    -0.39300
C757        C  0.78040191  0.92153551  0.84143381     0.19600
C758        C  0.78445652  0.93625275  0.87722476     0.22200
C759        C  0.81569215  0.94413364  0.90974699    -0.39800
C760        C  0.84218259  0.93674883  0.90317105     0.21000
N761        N  0.86635075  0.92000637  0.86737787    -0.33000
C762        C  0.88942489  0.93287853  0.90390643    -0.10600
C763        C  0.87536162  0.94325827  0.92731753    -0.29400
N764        N  0.75520409  0.94156547  0.87518783    -0.46000
C765        C  0.73259343  0.92990556  0.83784223    -0.05300
C766        C  0.74746598  0.41724049  0.81607467    -0.22600
H767        H  0.80326139  0.40317566  0.80661915     0.19200
H768        H  0.81908451  0.95587207  0.93776347     0.18000
H769        H  0.88759897  0.95529097  0.95735954     0.14200
H770        H  0.73569578  0.40645625  0.78560894     0.14100
H771        H  0.86986007  0.41099558  0.84378953     0.32300
H772        H  0.75090696  0.95218494  0.89773538     0.35000
C773        C  0.12291491  0.78215982  0.86778722     0.20600
C774        C  0.12628287  0.80752864  0.89924318    -0.39300
C775        C  0.09714712  0.82501018  0.89454805     0.19600
C776        C  0.06715955  0.81774226  0.86108997     0.22200
C777        C  0.06376671  0.79206374  0.83010840    -0.39800
C778        C  0.09269312  0.77460411  0.83484402     0.21000
N779        N  0.14677751  0.76349836  0.86371809    -0.33000
C780        C  0.13134257  0.74402968  0.82793411    -0.10600
C781        C  0.09766440  0.75005494  0.80935512    -0.29400
N782        N  0.04334161  0.83891134  0.86283219    -0.46000
C783        C  0.05806719  0.85984831  0.89771050    -0.05300
C784        C  0.09165952  0.85190460  0.91850518    -0.22600
H785        H  0.14982093  0.81384691  0.92499701     0.19200
H786        H  0.04035110  0.78670348  0.80382561     0.18000
H787        H  0.07932445  0.73916226  0.78032876     0.14200
H788        H  0.10962913  0.86463528  0.94688916     0.14100
H789        H  0.17189448  0.76464036  0.88354261     0.32300
H790        H  0.01857382  0.83928756  0.84141519     0.35000
C791        C  0.28217347  0.70284171  0.86489929     0.20600
C792        C  0.31308182  0.70847753  0.89859522    -0.39300
C793        C  0.33993383  0.69616747  0.89439417     0.19600
C794        C  0.33617098  0.67950473  0.85935399     0.22200
C795        C  0.30538659  0.67358504  0.82591115    -0.39800
C796        C  0.27868347  0.68596118  0.83007762     0.21000
N797        N  0.25274432  0.71197822  0.86096625    -0.33000
C798        C  0.23053759  0.70063678  0.82338069    -0.10600
C799        C  0.24585829  0.68440595  0.80329563    -0.29400
N800        N  0.36531341  0.67169495  0.86226676    -0.46000
C801        C  0.38795867  0.68348622  0.89940969    -0.05300
C802        C  0.37309939  0.69874754  0.92049461    -0.22600
H803        H  0.31602419  0.72179327  0.92587715     0.19200
H804        H  0.30245355  0.66069993  0.79847612     0.18000
H805        H  0.23445027  0.67264408  0.77316924     0.14200
H806        H  0.38495790  0.71117068  0.95039205     0.14100
H807        H  0.24805959  0.72463776  0.88254350     0.32300
H808        H  0.36952752  0.65982458  0.84003476     0.35000
C809        C  0.56889230  0.54351513  0.87685027     0.20600
C810        C  0.56553593  0.51578919  0.84719037    -0.39300
C811        C  0.59466095  0.49936172  0.85156467     0.19600
C812        C  0.62501575  0.50957796  0.88309793     0.22200
C813        C  0.62836346  0.53681195  0.91341907    -0.39800
C814        C  0.59903222  0.55343788  0.90898315     0.21000
N815        N  0.54493400  0.56523980  0.87774811    -0.33000
C816        C  0.55967267  0.58937942  0.91065151    -0.10600
C817        C  0.59345892  0.58264591  0.93125442    -0.29400
N818        N  0.64895284  0.49150436  0.87874974    -0.46000
C819        C  0.63347303  0.46970693  0.84422501    -0.05300
C820        C  0.59966027  0.47376246  0.82668232    -0.22600
H821        H  0.54198348  0.50856794  0.82181391     0.19200
H822        H  0.65201913  0.54540489  0.93790145     0.18000
H823        H  0.61153772  0.59817994  0.95794174     0.14200
H824        H  0.58119098  0.46088789  0.79865686     0.14100
H825        H  0.52007839  0.56434454  0.85668910     0.32300
H826        H  0.67413658  0.49448945  0.89756807     0.35000
C827        C  0.45866486  0.86533072  0.05377769     0.20600
C828        C  0.46210787  0.89622652  0.08104160    -0.39300
C829        C  0.43292893  0.91253408  0.07657472     0.19600
C830        C  0.40250192  0.89916954  0.04724157     0.22200
C831        C  0.39903982  0.86854355  0.01948448    -0.39800
C832        C  0.42837511  0.85213668  0.02395438     0.21000
N833        N  0.48275888  0.84385343  0.05298675    -0.33000
C834        C  0.46787740  0.81676348  0.02237546    -0.10600
C835        C  0.43390490  0.82101190  0.00336791    -0.29400
N836        N  0.37864353  0.91758809  0.05137619    -0.46000
C837        C  0.39422551  0.94257979  0.08367326    -0.05300
C838        C  0.42801948  0.94052045  0.09986158    -0.22600
H839        H  0.48578961  0.90603155  0.10471354     0.19200
H840        H  0.37534197  0.85749895  0.99686186     0.18000
H841        H  0.41577571  0.80309641  0.97856120     0.14200
H842        H  0.44657643  0.95581268  0.12638151     0.14100
H843        H  0.50782910  0.84716484  0.07239422     0.32300
H844        H  0.35351226  0.91232669  0.03428107     0.35000
C845        C  0.75017275  0.71550837  0.10607684     0.20600
C846        C  0.72441103  0.72829243  0.11194674    -0.39300
C847        C  0.69305559  0.72278614  0.07955098     0.19600
C848        C  0.68759909  0.70564109  0.04395129     0.22200
C849        C  0.71350239  0.69262889  0.03810787    -0.39800
C850        C  0.74505071  0.69828942  0.07063404     0.21000
N851        N  0.78216869  0.71891804  0.13196886    -0.33000
C852        C  0.79777797  0.70391738  0.11306662    -0.10600
C853        C  0.77548126  0.69047048  0.07473360    -0.29400
N854        N  0.65533115  0.70355894  0.01798482    -0.46000
C855        C  0.64036291  0.71956075  0.03739497    -0.05300
C856        C  0.66313083  0.73189192  0.07579055    -0.22600
H857        H  0.72851154  0.74189915  0.13964273     0.19200
H858        H  0.70941732  0.67938651  0.01029225     0.18000
H859        H  0.78080504  0.67794247  0.05255590     0.14200
H860        H  0.65838397  0.74522796  0.09816434     0.14100
H861        H  0.79272997  0.73153709  0.16054967     0.32300
H862        H  0.64420789  0.69161957  0.98912352     0.35000
C863        C  0.96142545  0.61255855  0.06521147     0.20600
C864        C  0.96518759  0.63995573  0.09540854    -0.39300
C865        C  0.93626794  0.65154999  0.09494375     0.19600
C866        C  0.90589987  0.63709317  0.06646178     0.22200
C867        C  0.90208835  0.61008119  0.03591306    -0.39800
C868        C  0.93106258  0.59834487  0.03646478     0.21000
N869        N  0.98528195  0.59513245  0.06059628    -0.33000
C870        C  0.97008145  0.56956223  0.02872140    -0.10600
C871        C  0.93620242  0.57088923  0.01266577    -0.29400
N872        N  0.88244501  0.65100311  0.07381361    -0.46000
C873        C  0.89802440  0.67430754  0.10730761    -0.05300
C874        C  0.93160556  0.67558892  0.12122112    -0.22600
H875        H  0.98897018  0.65051377  0.11825185     0.19200
H876        H  0.87842917  0.59817533  0.01402492     0.18000
H877        H  0.91795312  0.55300784  0.98793079     0.14200
H878        H  0.95019761  0.69090552  0.14768664     0.14100
H879        H  0.01042421  0.09963376  0.07862622     0.32300
H880        H  0.85749154  0.64422331  0.05758597     0.35000
C881        C  0.41146529  0.85865462  0.75191069     0.20600
C882        C  0.41217443  0.84915827  0.78770135    -0.39300
C883        C  0.43556305  0.81975175  0.81175009     0.19600
C884        C  0.45635294  0.80087020  0.80068386     0.22200
C885        C  0.45630969  0.81133745  0.76543464    -0.39800
C886        C  0.43314030  0.84112277  0.74155603     0.21000
N887        N  0.38997439  0.88321910  0.72271298    -0.33000
C888        C  0.39820749  0.88184212  0.69373269    -0.10600
C889        C  0.42523771  0.85621746  0.70449261    -0.29400
N890        N  0.47357272  0.77048741  0.82626732    -0.46000
C891        C  0.46383714  0.77022586  0.85392462    -0.05300
C892        C  0.44052507  0.80095035  0.84624051    -0.22600
H893        H  0.39490851  0.86244085  0.79548698     0.19200
H894        H  0.47221805  0.79616220  0.75648182     0.18000
H895        H  0.43650521  0.84816557  0.68681570     0.14200
H896        H  0.42719329  0.80653755  0.86199194     0.14100
H897        H  0.37055361  0.89951038  0.72224607     0.32300
H898        H  0.48995072  0.75008660  0.82415765     0.35000
C899        C  0.18708520  0.92605604  0.55784681     0.20600
C900        C  0.21766333  0.91501814  0.58936477    -0.39300
C901        C  0.24442313  0.92363662  0.58413208     0.19600
C902        C  0.24128168  0.94202992  0.55014846     0.22200
C903        C  0.21044312  0.95322983  0.51835426    -0.39800
C904        C  0.18339709  0.94435932  0.52354148     0.21000
N905        N  0.15814126  0.92142946  0.55626707    -0.33000
C906        C  0.13547739  0.93678958  0.52071436    -0.10600
C907        C  0.15022425  0.95131167  0.49921198    -0.29400
N908        N  0.27087164  0.94632297  0.55281198    -0.46000
C909        C  0.29268753  0.93029977  0.58872109    -0.05300
C910        C  0.27699352  0.41605053  0.60895794    -0.22600
H911        H  0.22042165  0.40068049  0.61611587     0.19200
H912        H  0.20770533  0.96763540  0.49164717     0.18000
H913        H  0.13839285  0.96571929  0.47021107     0.14200
H914        H  0.28796505  0.40163843  0.63794468     0.14100
H915        H  0.15410674  0.40892057  0.57837181     0.32300
H916        H  0.27586031  0.95889553  0.53150645     0.35000
C917        C  0.08471019  0.58810470  0.60468218     0.20600
C918        C  0.10553957  0.62215838  0.62206956    -0.39300
C919        C  0.10761651  0.63710421  0.65723881     0.19600
C920        C  0.08947155  0.62037907  0.67320495     0.22200
C921        C  0.06798428  0.58693073  0.65523621    -0.39800
C922        C  0.06675518  0.57105200  0.62074716     0.21000
N923        N  0.08134247  0.56543705  0.57374366    -0.33000
C924        C  0.06159771  0.53330509  0.57053644    -0.10600
C925        C  0.05181911  0.53581150  0.59914548    -0.29400
N926        N  0.09825402  0.63745200  0.70878894    -0.46000
C927        C  0.12264943  0.66437657  0.71574309    -0.05300
C928        C  0.12900490  0.66530988  0.68423833    -0.22600
H929        H  0.12067339  0.63430735  0.61054065     0.19200
H930        H  0.05489710  0.57257807  0.66855992     0.18000
H931        H  0.03700948  0.51382176  0.60449564     0.14200
H932        H  0.14804865  0.68246076  0.68246647     0.14100
H933        H  0.09298412  0.57040817  0.55704405     0.32300
H934        H  0.08971521  0.62940529  0.72821123     0.35000
C935        C  0.93607929  0.83818356  0.32427428     0.20600
C936        C  0.91543868  0.80373506  0.30785407    -0.39300
C937        C  0.91423621  0.78670544  0.27379561     0.19600
C938        C  0.93280444  0.80211182  0.25787398     0.22200
C939        C  0.95362661  0.83641761  0.27448499    -0.39800
C940        C  0.95423855  0.85407831  0.30800309     0.21000
N941        N  0.93954906  0.86183824  0.35472644    -0.33000
C942        C  0.95955146  0.89343374  0.35735117    -0.10600
C943        C  0.96937466  0.88960237  0.32887779    -0.29400
N944        N  0.92579283  0.78201923  0.22410553    -0.46000
C945        C  0.90215389  0.75426062  0.21816571    -0.05300
C946        C  0.89435139  0.75615948  0.24852987    -0.22600
H947        H  0.90031138  0.79223983  0.31965102     0.19200
H948        H  0.96720610  0.84952697  0.26124502     0.18000
H949        H  0.98456354  0.91075189  0.32332627     0.14200
H950        H  0.87561764  0.73881662  0.25080733     0.14100
H951        H  0.92794825  0.85773279  0.37158906     0.32300
H952        H  0.93520515  0.78827519  0.20520000     0.35000
C953        C  0.78044519  0.96979492  0.37255373     0.20600
C954        C  0.81177544  0.96328055  0.40531927    -0.39300
C955        C  0.83822602  0.97582598  0.40035181     0.19600
C956        C  0.83368260  0.99324500  0.36532634     0.22200
C957        C  0.80249079  0.99973029  0.33268450    -0.39800
C958        C  0.77618579  0.98737890  0.33772253     0.21000
N959        N  0.75128814  0.96146410  0.36983046    -0.33000
C960        C  0.72843044  0.97405663  0.33302488    -0.10600
C961        C  0.74311507  0.99020891  0.31218661    -0.29400
N962        N  0.86251753  0.00131286  0.36743212    -0.46000
C963        C  0.88581622  0.98899671  0.40405100    -0.05300
C964        C  0.87161455  0.97311653  0.42562533    -0.22600
H965        H  0.81530077  0.94949377  0.43262760     0.19200
H966        H  0.79895812  0.01334330  0.30529864     0.18000
H967        H  0.73115258  0.00305218  0.28251004     0.14200
H968        H  0.88400816  0.96008211  0.45521127     0.14100
H969        H  0.74720674  0.94872490  0.39180642     0.32300
H970        H  0.86610838  0.01366730  0.34493216     0.35000
C971        C  0.60347250  0.03841377  0.17137899     0.20600
C972        C  0.59982914  0.54625844  0.13382712    -0.39300
C973        C  0.58094339  0.58105080  0.11417234     0.19600
C974        C  0.56691444  0.60623415  0.13077753     0.22200
C975        C  0.56965674  0.59757168  0.16780061    -0.39800
C976        C  0.58838934  0.56256495  0.18738768     0.21000
N977        N  0.62305125  0.01005417  0.19767695    -0.33000
C978        C  0.62012735  0.01587793  0.23042044    -0.10600
C979        C  0.59843350  0.54794365  0.22510991    -0.29400
N980        N  0.55355298  0.64008055  0.10835277    -0.46000
C981        C  0.55913600  0.63631447  0.07732345    -0.05300
C982        C  0.57570045  0.59960387  0.07957145    -0.22600
H983        H  0.61220623  0.02792846  0.12173289     0.19200
H984        H  0.55939714  0.61778657  0.18124736     0.18000
H985        H  0.59272568  0.56072389  0.24687894     0.14200
H986        H  0.58476909  0.58943988  0.06008995     0.14100
H987        H  0.63830183  0.98892091  0.19411744     0.32300
H988        H  0.54259883  0.66502072  0.11466390     0.35000
C989        C  0.10600666  0.79134070  0.15929977     0.20600
C990        C  0.10374157  0.80280914  0.12316629    -0.39300
C991        C  0.08343626  0.83671322  0.10405515     0.19600
C992        C  0.06670481  0.85779848  0.11978467     0.22200
C993        C  0.06781074  0.84511842  0.15515014    -0.39800
C994        C  0.08815107  0.81100354  0.17430249     0.21000
N995        N  0.12633367  0.76307932  0.18501681    -0.33000
C996        C  0.12116685  0.76425393  0.21643970    -0.10600
C997        C  0.09723861  0.79336862  0.21077328    -0.29400
N998        N  0.05277750  0.89235451  0.09871068    -0.46000
C999        C  0.06074682  0.89299876  0.06945934    -0.05300
C1000       C  0.07929198  0.85843088  0.07139470    -0.22600
H1001       H  0.11820333  0.78793650  0.11189755     0.19200
H1002       H  0.05529096  0.86198238  0.16795119     0.18000
H1003       H  0.08913307  0.80216432  0.23154087     0.14200
H1004       H  0.09042947  0.85187763  0.05325900     0.14100
H1005       H  0.14323917  0.74472609  0.18181587     0.32300
H1006       H  0.03990495  0.91495040  0.10484532     0.35000
C1007       C  0.09081428  0.65569374  0.33642014     0.20600
C1008       C  0.06070557  0.64378980  0.33252757    -0.39300
C1009       C  0.06236593  0.61617093  0.36136796     0.19600
C1010       C  0.09173782  0.60183978  0.39210435     0.22200
C1011       C  0.12192345  0.61426465  0.39633976    -0.39800
C1012       C  0.12025845  0.64152541  0.36714805     0.21000
N1013       N  0.09570498  0.67947379  0.31137463    -0.33000
C1014       C  0.12849877  0.68022570  0.32606516    -0.10600
C1015       C  0.14466368  0.65712113  0.36095336    -0.29400
N1016       N  0.08651127  0.57430825  0.41449117    -0.46000
C1017       C  0.05355732  0.57098313  0.39757747    -0.05300
C1018       C  0.03774514  0.59673358  0.36452400    -0.22600
H1019       H  0.03764854  0.65416165  0.30808518     0.19200
H1020       H  0.14493508  0.60252664  0.41983096     0.18000
H1021       H  0.17065650  0.65136648  0.37861808     0.14200
H1022       H  0.01169213  0.09998186  0.34483786     0.14100
H1023       H  0.07777339  0.69333051  0.28530046     0.32300
H1024       H  0.10419056  0.55810787  0.43909278     0.35000
C1025       C  0.33696458  0.70108002  0.38183721     0.20600
C1026       C  0.31080981  0.68694408  0.38661467    -0.39300
C1027       C  0.27938575  0.69699752  0.35574217     0.19600
C1028       C  0.27453127  0.71921525  0.32268674     0.22200
C1029       C  0.30057713  0.73272495  0.31764110    -0.39800
C1030       C  0.33187097  0.72285962  0.34846890     0.21000
N1031       N  0.36917100  0.69681155  0.40732453    -0.33000
C1032       C  0.38453886  0.71603466  0.38990340    -0.10600
C1033       C  0.36205515  0.73242617  0.35310358    -0.29400
N1034       N  0.24261522  0.72654840  0.29847118    -0.46000
C1035       C  0.22685290  0.70901535  0.31612277    -0.05300
C1036       C  0.24894479  0.68999200  0.35183317    -0.22600
H1037       H  0.31464815  0.67013793  0.41275316     0.19200
H1038       H  0.29676700  0.75039339  0.29194721     0.18000
H1039       H  0.36714023  0.74940842  0.33264269     0.14200
H1040       H  0.24354532  0.67432631  0.37265184     0.14100
H1041       H  0.38000455  0.68178508  0.43477566     0.32300
H1042       H  0.23226184  0.74326960  0.27193367     0.35000
C1043       C  0.56664010  0.80083631  0.63038324     0.20600
C1044       C  0.56797584  0.81151175  0.66639151    -0.39300
C1045       C  0.58997954  0.84341882  0.68821091     0.19600
C1046       C  0.60932614  0.86271148  0.67520249     0.22200
C1047       C  0.60697071  0.85329255  0.63854462    -0.39800
C1048       C  0.58483329  0.82177856  0.61665184     0.21000
N1049       N  0.55080584  0.76848849  0.60651107    -0.33000
C1050       C  0.55886504  0.76926029  0.57734429    -0.10600
C1051       C  0.57958940  0.80241710  0.58233481    -0.29400
N1052       N  0.63088871  0.88844671  0.70311026    -0.46000
C1053       C  0.62498378  0.88609310  0.73391213    -0.05300
C1054       C  0.59936095  0.85877528  0.72566868    -0.22600
H1055       H  0.55420164  0.79480704  0.67754611     0.19200
H1056       H  0.62248158  0.86792749  0.62872825     0.18000
H1057       H  0.59129385  0.80937907  0.56493387     0.14200
H1058       H  0.59025779  0.84956677  0.74532347     0.14100
H1059       H  0.53651596  0.74636353  0.61065579     0.32300
H1060       H  0.64899127  0.90593961  0.70166554     0.35000
C1061       C  0.42091685  0.54112105  0.25608178     0.20600
C1062       C  0.42406888  0.54852456  0.29343537    -0.39300
C1063       C  0.44549876  0.58057190  0.31542384     0.19600
C1064       C  0.46251490  0.60356383  0.30129421     0.22200
C1065       C  0.46077662  0.59454234  0.26481124    -0.39800
C1066       C  0.43925734  0.56242056  0.24273772     0.21000
N1067       N  0.39895422  0.01630968  0.22754336    -0.33000
C1068       C  0.40361154  0.02148981  0.19602737    -0.10600
C1069       C  0.42886137  0.04939631  0.20441825    -0.29400
N1070       N  0.47689239  0.63661244  0.32479433    -0.46000
C1071       C  0.46893733  0.63435679  0.35397466    -0.05300
C1072       C  0.44999906  0.59940870  0.34958970    -0.22600
H1073       H  0.40915351  0.53258113  0.30341127     0.19200
H1074       H  0.47337658  0.61307163  0.25321093     0.18000
H1075       H  0.43689119  0.06069308  0.18430501     0.14200
H1076       H  0.43848381  0.59116693  0.36692632     0.14100
H1077       H  0.38132160  0.99780938  0.22900731     0.32300
H1078       H  0.48975634  0.66033491  0.32009188     0.35000
C1079       C  0.45712586  0.53947304  0.55204708     0.20600
C1080       C  0.46083614  0.51056462  0.58099059    -0.39300
C1081       C  0.43188945  0.49281293  0.57611589     0.19600
C1082       C  0.40147498  0.50309816  0.54481694     0.22200
C1083       C  0.39780560  0.53152500  0.51532777    -0.39800
C1084       C  0.42687213  0.54936335  0.52021728     0.21000
N1085       N  0.48078632  0.56213482  0.55140790    -0.33000
C1086       C  0.46572066  0.58672480  0.51892479    -0.10600
C1087       C  0.43200904  0.57952326  0.49846255    -0.29400
N1088       N  0.37765905  0.48438952  0.54882866    -0.46000
C1089       C  0.39309461  0.46216470  0.58296254    -0.05300
C1090       C  0.42694840  0.46631601  0.60051652    -0.22600
H1091       H  0.48447603  0.50342488  0.60619441     0.19200
H1092       H  0.37404054  0.54013219  0.49114051     0.18000
H1093       H  0.41371504  0.59510371  0.47205227     0.14200
H1094       H  0.44539524  0.45349709  0.62850456     0.14100
H1095       H  0.50569938  0.56133891  0.57223719     0.32300
H1096       H  0.35247333  0.48770442  0.53025719     0.35000
C1097       C  0.56704104  0.86693479  0.38049315     0.20600
C1098       C  0.56350892  0.89730828  0.35283250    -0.39300
C1099       C  0.59253512  0.91091043  0.35477200     0.19600
C1100       C  0.62291884  0.89580528  0.38240131     0.22200
C1101       C  0.62653383  0.86612088  0.41090612    -0.39800
C1102       C  0.59734678  0.85216807  0.40875372     0.21000
N1103       N  0.54294062  0.84641088  0.38217774    -0.33000
C1104       C  0.55781094  0.81824244  0.41168780    -0.10600
C1105       C  0.59181841  0.82113897  0.42937190    -0.29400
N1106       N  0.64639125  0.91142387  0.37578369    -0.46000
C1107       C  0.63066784  0.93640520  0.34359443    -0.05300
C1108       C  0.59712020  0.93705877  0.32995517    -0.22600
H1109       H  0.53975744  0.90814165  0.33023122     0.19200
H1110       H  0.65013878  0.85349068  0.43200325     0.18000
H1111       H  0.60990392  0.80172136  0.45263368     0.14200
H1112       H  0.57838330  0.95304381  0.30417798     0.14100
H1113       H  0.51783420  0.85051617  0.36356020     0.32300
H1114       H  0.67132019  0.90444197  0.39131209     0.35000
C1115       C  0.68421643  0.70647979  0.54182999     0.20600
C1116       C  0.70929484  0.72127216  0.53521985    -0.39300
C1117       C  0.74114017  0.71862169  0.56776798     0.19600
C1118       C  0.74724465  0.70260838  0.60394906     0.22200
C1119       C  0.72225010  0.68826550  0.61063364    -0.39800
C1120       C  0.69061266  0.69065220  0.57817904     0.21000
N1121       N  0.65193213  0.70551590  0.51593779    -0.33000
C1122       C  0.63785404  0.68891111  0.53608966    -0.10600
C1123       C  0.66122715  0.67921459  0.57495601    -0.29400
N1124       N  0.77940845  0.70156018  0.62959054    -0.46000
C1125       C  0.79420369  0.71683657  0.60984225    -0.05300
C1126       C  0.77111970  0.72820718  0.57116215    -0.22600
H1127       H  0.70441566  0.73344029  0.50677361     0.19200
H1128       H  0.72715429  0.67557544  0.63891713     0.18000
H1129       H  0.65718950  0.66625077  0.59796843     0.14200
H1130       H  0.77568696  0.74026766  0.54826529     0.14100
H1131       H  0.64018319  0.71601823  0.48661580     0.32300
H1132       H  0.79064973  0.69008338  0.65857093     0.35000
C1133       C  0.93463313  0.62983924  0.75865984     0.20600
C1134       C  0.95795516  0.59834882  0.77733899    -0.39300
C1135       C  0.95820784  0.57971958  0.81026589     0.19600
C1136       C  0.93760332  0.59254750  0.82429009     0.22200
C1137       C  0.91483246  0.62457092  0.80616863    -0.39800
C1138       C  0.91379050  0.64213457  0.77250162     0.21000
N1139       N  0.92689945  0.64907617  0.72432501    -0.33000
C1140       C  0.90052982  0.67297109  0.71597068    -0.10600
C1141       C  0.89176551  0.66963405  0.74538904    -0.29400
N1142       N  0.94066119  0.56787812  0.85383577    -0.46000
C1143       C  0.96279819  0.53850809  0.85812300    -0.05300
C1144       C  0.97452192  0.54498526  0.83170312    -0.22600
H1145       H  0.97330091  0.58738921  0.76561575     0.19200
H1146       H  0.89774134  0.63332360  0.81603666     0.18000
H1147       H  0.87105539  0.68383274  0.74582071     0.14200
H1148       H  0.99145765  0.52572595  0.82747836     0.14100
H1149       H  0.93769058  0.64451420  0.70660133     0.32300
H1150       H  0.92722510  0.56956843  0.86871949     0.35000
C1151       C  0.90240664  0.79019115  0.56442817     0.20600
C1152       C  0.89900806  0.81877345  0.53530142    -0.39300
C1153       C  0.92803754  0.82993823  0.53573691     0.19600
C1154       C  0.95812368  0.81374363  0.56302217     0.22200
C1155       C  0.96146597  0.78468109  0.59174611    -0.39800
C1156       C  0.93246967  0.77373135  0.59145628     0.21000
N1157       N  0.87886526  0.77645046  0.57171031    -0.33000
C1158       C  0.89409425  0.75125533  0.60375351    -0.10600
C1159       C  0.92751328  0.74862378  0.61675971    -0.29400
N1160       N  0.98216497  0.83104388  0.55865935    -0.46000
C1161       C  0.96731080  0.85848227  0.52838907    -0.05300
C1162       C  0.93351200  0.85848341  0.51315480    -0.22600
H1163       H  0.87563120  0.83225558  0.51458849     0.19200
H1164       H  0.98502655  0.77247369  0.61348767     0.18000
H1165       H  0.94586399  0.73165770  0.64207859     0.14200
H1166       H  0.91554324  0.87784115  0.48971102     0.14100
H1167       H  0.85414553  0.78457070  0.55647314     0.32300
H1168       H  0.00719834  0.82514807  0.57575191     0.35000
loop_ 
_geom_bond_atom_site_label_1 
_geom_bond_atom_site_label_2 
_geom_bond_distance 
_geom_bond_site_symmetry_2 
_ccdc_geom_bond_type 
C1            N2   1.356       .  A
C1            N6   1.354       .  A
C1          C556   1.468       .  S
N2            C3   1.361       .  A
C3            N4   1.363       .  A
C3          C574   1.473       .  S
N4            C5   1.361       .  A
C5            N6   1.356       .  A
C5          C541   1.473       .  S
O7          Ni13   1.926       .  S
O7           C28   1.270       .  A
O8          Ni31   1.907       .  S
O8           C17   1.267       .  A
O9          Ni13   1.921       .  S
O9          Ni31   1.912       .  S
O9          Ni25   1.921       .  S
O9           H32   0.966       .  S
C10         C538   1.470       .  S
C10          O27   1.265       .  A
C10          O19   1.273       .  A
O11         Ni30   1.926       .  S
O11          C17   1.272       .  A
O12         Ni30   1.908       .  S
O12          C14   1.270       .  A
Ni13         O16   1.935       .  S
Ni13         O18   1.908       .  S
C14         C466   1.468       .  S
C14          O24   1.276       .  A
O15         Ni31   1.907       .  S
O15          C21   1.267       .  A
O16          C21   1.272       .  A
C17         C502   1.474       .  S
O18          C20   1.271       .  A
O19         Ni30   1.938       .  S
C20         C487   1.465       .  S
C20          O26   1.276       .  A
C21         C448   1.473       .  S
H22          O23   0.966       .  S
O23         Ni31   1.918       .  S
O23         Ni25   1.907       .  S
O23         Ni30   1.919       .  S
O24         Ni25   1.939       .  S
Ni25         O29   1.902       .  S
Ni25         O27   1.900       .  S
O26         Ni31   1.936       .  S
C28         C520   1.472       .  S
C28          O29   1.265       .  A
C33          N34   1.357       .  A
C33          N38   1.357       .  A
C33         C412   1.466       .  S
N34          C35   1.357       .  A
C35          N36   1.358       .  A
C35         C451   1.473       .  S
N36          C37   1.360       .  A
C37          N38   1.359       .  A
C37         C430   1.470       .  S
C39          N40   1.352       .  A
C39          N44   1.353       .  A
C39         C394   1.461       .  S
N40          C41   1.356       .  A
C41          N42   1.363       .  A
C41         C376   1.477       .  S
N42          C43   1.365       .  A
C43          N44   1.360       .  A
C43         C523   1.475       .  S
O45         Ni51   1.924   1_455  S
O45         C650   1.271       .  A
O46         Ni69   1.901       .  S
O46          C55   1.266       .  A
O47         Ni51   1.916       .  S
O47         Ni69   1.908       .  S
O47         Ni63   1.922   1_655  S
O47         H654   0.966   1_655  S
C48         C322   1.475       .  S
C48          O65   1.265       .  A
C48          O57   1.273       .  A
O49         Ni68   1.928       .  S
O49          C55   1.271   1_455  A
O50         Ni68   1.904       .  S
O50         C636   1.271       .  A
Ni51         O54   1.939       .  S
Ni51         O56   1.906       .  S
C52         C340   1.466   1_565  S
C52          O62   1.277   1_565  A
C52         O634   1.271       .  A
O53         Ni69   1.911       .  S
O53          C59   1.268       .  A
O54          C59   1.273       .  A
C55         C577   1.473       .  S
O56          C58   1.270       .  A
O57         Ni68   1.938       .  S
C58         C358   1.466       .  S
C58          O64   1.275       .  A
C59         C379   1.477       .  S
H60          O61   0.966       .  S
O61         Ni69   1.927   1_455  S
O61         Ni63   1.911       .  S
O61         Ni68   1.917       .  S
O62        Ni647   1.944   1_545  S
Ni63         O65   1.909       .  S
Ni63        O646   1.944       .  S
Ni63        O651   1.904       .  S
O64         Ni69   1.941       .  S
C66         C433   1.471       .  S
C66          O67   1.266       .  A
C66         O629   1.271       .  A
O67        Ni647   1.904   1_545  S
H70         O631   0.966   1_455  S
C71          N76   1.353       .  A
C71         N656   1.357       .  A
C71         C304   1.471       .  S
N72          C73   1.363       .  A
N72         C655   1.357       .  A
C73          N74   1.364       .  A
C73         C505   1.476       .  S
N74         C659   1.360       .  A
C75          N76   1.357       .  A
C75         N658   1.360       .  A
C75         C325   1.476       .  S
C77          N78   1.353       .  A
C77          N82   1.358       .  A
C77         C361   1.466       .  S
N78          C79   1.355       .  A
C79          N80   1.358       .  A
C79         C268   1.469       .  S
N80          C81   1.361       .  A
C81          N82   1.362       .  A
C81         C289   1.472       .  S
O83         Ni89   1.923       .  S
O83         C104   1.270       .  A
O84        Ni107   1.901       .  S
O84          C93   1.265       .  A
O85         Ni89   1.922   1_556  S
O85        Ni107   1.914       .  S
O85        Ni101   1.922       .  S
O85         H108   0.966       .  S
C86         C217   1.471       .  S
C86         O103   1.265       .  A
C86          O95   1.274       .  A
O87        Ni106   1.931       .  S
O87          C93   1.273       .  A
O88        Ni106   1.908       .  S
O88          C90   1.270       .  A
Ni89         O92   1.933       .  S
Ni89         O94   1.905       .  S
C90         C307   1.470       .  S
C90         O100   1.276       .  A
O91        Ni107   1.906       .  S
O91          C97   1.266   1_556  A
O92          C97   1.271       .  A
C93         C232   1.472       .  S
O94          C96   1.270       .  A
O95        Ni106   1.943       .  S
C96         C397   1.465       .  S
C96         O102   1.275       .  A
C97         C271   1.471       .  S
H98          O99   0.966       .  S
O99        Ni107   1.915       .  S
O99        Ni101   1.906       .  S
O99        Ni106   1.916       .  S
O100       Ni101   1.946       .  S
Ni101       O105   1.899       .  S
Ni101       O103   1.900       .  S
O102       Ni107   1.938   1_554  S
C104        C250   1.469       .  S
C104        O105   1.264   1_554  A
C109        N110   1.352       .  A
C109        N114   1.352       .  A
C109        C343   1.462       .  S
N110        C111   1.359       .  A
C111        N112   1.363       .  A
C111        C196   1.471       .  S
N112        C113   1.363       .  A
C113        N114   1.356       .  A
C113        C214   1.472       .  S
C115        N120   1.353       .  A
C115        N700   1.353       .  A
C115        C469   1.466       .  S
N116        C117   1.360       .  A
N116        C699   1.353       .  A
C117        N118   1.364       .  A
C117        C235   1.474       .  S
N118        C703   1.363       .  A
C119        N120   1.357       .  A
C119        N702   1.363       .  A
C119        C181   1.474       .  S
C121        N122   1.351       .  A
C121        N126   1.354       .  A
C121        C484   1.460       .  S
N122        C123   1.357       .  A
C123        N124   1.360       .  A
C123        C253   1.467       .  S
N124        C125   1.360       .  A
C125        N126   1.358       .  A
C125        C163   1.470       .  S
O127       Ni133   1.921       .  S
O127        C732   1.270   1_455  A
O128       Ni151   1.896       .  S
O128        C137   1.264       .  A
O129       Ni133   1.920   1_556  S
O129       Ni151   1.911       .  S
O129       Ni145   1.927   1_455  S
O129        H736   0.966       .  S
C130        C178   1.474       .  S
C130        O147   1.267       .  A
C130        O139   1.276       .  A
O131       Ni150   1.932   1_455  S
O131        C137   1.273       .  A
O132       Ni150   1.909       .  S
O132        C718   1.269       .  A
Ni133       O136   1.935       .  S
Ni133       O138   1.907       .  S
C134        C559   1.469       .  S
C134        O144   1.275       .  A
C134        O716   1.269   1_545  A
O135       Ni151   1.904       .  S
O135        C141   1.263   1_556  A
O136        C141   1.271       .  A
C137        C199   1.469       .  S
O138        C140   1.271       .  A
O139       Ni150   1.943       .  S
C140        C415   1.468       .  S
C140        O146   1.278       .  A
C141        C160   1.471       .  S
H142        O143   0.966   1_455  S
O143       Ni151   1.909   1_655  S
O143       Ni145   1.905       .  S
O143       Ni150   1.914       .  S
O144       Ni729   1.943   1_545  S
Ni145       O147   1.904       .  S
Ni145       O728   1.943       .  S
Ni145       O733   1.902       .  S
O146       Ni151   1.942   1_554  S
C148        C286   1.470       .  S
C148        O149   1.266   1_554  A
C148        O711   1.270   1_655  A
O149       Ni729   1.902   1_545  S
H152        O713   0.966   1_545  S
C153        N159   1.347       .  A
C153        C158   1.384       .  A
C153        C154   1.407       .  A
C154        C155   1.407       .  A
C154        H165   1.082   1_554  S
C155        C164   1.382       .  A
C155        C156   1.385       .  A
C156        N162   1.339       .  A
C156        C157   1.398       .  A
C157        C158   1.397       .  A
C157        H166   1.083       .  S
C158        C161   1.371       .  A
N159        C160   1.358       .  A
N159        H169   1.045   1_554  S
C160        C161   1.392       .  A
C161        H167   1.083       .  S
N162        C163   1.354       .  A
N162        H170   1.045       .  S
C163        C164   1.397       .  A
C164        H168   1.082       .  S
C171        N177   1.341       .  A
C171        C176   1.385       .  A
C171        C756   1.399       .  A
C172        C755   1.399       .  A
C172        C757   1.399       .  A
C172        H183   1.083       .  S
C173        C174   1.384       .  A
C173        C756   1.399       .  A
C173        C766   1.372       .  A
C174        N180   1.349       .  A
C174        C175   1.408       .  A
C175        C176   1.408       .  A
C175        H184   1.082       .  S
C176        C179   1.383       .  A
N177        C178   1.354       .  A
N177        H771   1.045       .  S
C178        C179   1.399       .  A
C179        H185   1.082       .  S
N180        C181   1.358       .  A
N180        H188   1.044       .  S
C181        C766   1.394       .  A
C182        C757   1.372       .  A
C182        C765   1.394       .  A
C182        H186   1.083       .  S
H187        N761   1.045       .  S
C189        N195   1.348       .  A
C189        C194   1.384       .  A
C189        C190   1.407       .  A
C190        C191   1.407       .  A
C190        H201   1.082       .  S
C191        C200   1.381       .  A
C191        C192   1.385       .  A
C192        N198   1.340       .  A
C192        C193   1.397       .  A
C193        C194   1.397       .  A
C193        H202   1.083       .  S
C194        C197   1.369       .  A
N195        C196   1.358       .  A
N195        H205   1.045       .  S
C196        C197   1.392       .  A
C197        H203   1.083       .  S
N198        C199   1.353       .  A
N198        H206   1.045       .  S
C199        C200   1.398       .  A
C200        H204   1.083       .  S
C207        N213   1.347       .  A
C207        C212   1.384       .  A
C207        C208   1.406       .  A
C208        C209   1.406       .  A
C208        H219   1.082       .  S
C209        C218   1.380       .  A
C209        C210   1.385       .  A
C210        N216   1.341       .  A
C210        C211   1.400       .  A
C211        C212   1.399       .  A
C211        H220   1.083       .  S
C212        C215   1.372       .  A
N213        C214   1.357       .  A
N213        H223   1.045       .  S
C214        C215   1.394       .  A
C215        H221   1.083       .  S
N216        C217   1.354       .  A
N216        H224   1.045       .  S
C217        C218   1.398       .  A
C218        H222   1.082       .  S
C225        N231   1.340       .  A
C225        C230   1.385       .  A
C225        C226   1.398       .  A
C226        C227   1.398   1_545  A
C226        H237   1.083       .  S
C227        C236   1.371       .  A
C227        C228   1.384   1_565  A
C228        N234   1.348   1_545  A
C228        C229   1.408       .  A
C229        C230   1.408       .  A
C229        H238   1.082       .  S
C230        C233   1.383       .  A
N231        C232   1.353       .  A
N231        H241   1.045       .  S
C232        C233   1.399       .  A
C233        H239   1.083       .  S
N234        C235   1.358       .  A
N234        H242   1.045       .  S
C235        C236   1.393       .  A
C236        H240   1.083       .  S
C243        N249   1.339       .  A
C243        C248   1.385       .  A
C243        C244   1.398       .  A
C244        C245   1.397       .  A
C244        H255   1.083       .  S
C245        C254   1.370       .  A
C245        C246   1.385       .  A
C246        N252   1.345       .  A
C246        C247   1.405       .  A
C247        C248   1.405       .  A
C247        H256   1.082   1_554  S
C248        C251   1.380       .  A
N249        C250   1.353       .  A
N249        H259   1.045       .  S
C250        C251   1.397       .  A
C251        H257   1.083   1_554  S
N252        C253   1.356       .  A
N252        H260   1.045       .  S
C253        C254   1.393       .  A
C254        H258   1.083       .  S
C261        N267   1.339       .  A
C261        C266   1.385       .  A
C261        C262   1.399       .  A
C262        C263   1.398       .  A
C262        H273   1.083       .  S
C263        C272   1.372       .  A
C263        C264   1.384       .  A
C264        N270   1.346       .  A
C264        C265   1.407       .  A
C265        C266   1.406       .  A
C265        H274   1.082       .  S
C266        C269   1.382       .  A
N267        C268   1.354       .  A
N267        H277   1.045       .  S
C268        C269   1.397       .  A
C269        H275   1.082       .  S
N270        C271   1.357       .  A
N270        H278   1.045   1_554  S
C271        C272   1.393       .  A
C272        H276   1.083       .  S
C279        N285   1.341       .  A
C279        C284   1.385       .  A
C279        C280   1.402       .  A
C280        C281   1.401       .  A
C280        H291   1.082       .  S
C281        C290   1.377       .  A
C281        C282   1.384       .  A
C282        N288   1.343       .  A
C282        C283   1.404       .  A
C283        C284   1.403       .  A
C283        H292   1.082       .  S
C284        C287   1.379       .  A
N285        C286   1.355       .  A
N285        H879   1.045   1_655  S
C286        C287   1.396       .  A
C287        H293   1.083   1_554  S
N288        C289   1.356       .  A
N288        H296   1.045       .  S
C289        C290   1.395       .  A
C290        H294   1.082       .  S
H295        N869   1.045   1_455  S
C297        N303   1.342       .  A
C297        C302   1.385       .  A
C297        C298   1.404       .  A
C298        C299   1.402       .  A
C298        H309   1.082       .  S
C299        C308   1.378       .  A
C299        C300   1.385       .  A
C300        N306   1.344       .  A
C300        C301   1.405       .  A
C301        C302   1.404       .  A
C301        H310   1.082       .  S
C302        C305   1.382       .  A
N303        C304   1.355       .  A
N303        H313   1.045       .  S
C304        C305   1.395       .  A
C305        H311   1.082       .  S
N306        C307   1.356       .  A
N306        H314   1.045       .  S
C307        C308   1.395       .  A
C308        H312   1.083       .  S
C315        N321   1.340       .  A
C315        C320   1.385       .  A
C315        C316   1.398       .  A
C316        C317   1.397       .  A
C316        H911   1.083       .  S
C317        C318   1.384       .  A
C317        C910   1.370       .  A
C318        N324   1.350       .  A
C318        C319   1.410       .  A
C319        C320   1.411       .  A
C319        H328   1.082       .  S
C320        C323   1.386       .  A
N321        C322   1.353       .  A
N321        H915   1.045       .  S
C322        C323   1.401       .  A
C323        H329   1.082       .  S
N324        C325   1.359       .  A
N324        H332   1.044       .  S
C325        C910   1.393       .  A
C326        C901   1.370       .  A
C326        C909   1.393       .  A
C326        H330   1.083       .  S
H327        C900   1.083       .  S
H331        N905   1.045       .  S
C333        N339   1.342       .  A
C333        C338   1.385       .  A
C333        C334   1.400       .  A
C334        C335   1.400       .  A
C334        H345   1.082       .  S
C335        C344   1.374       .  A
C335        C336   1.386       .  A
C336        N342   1.344       .  A
C336        C337   1.403       .  A
C337        C338   1.402       .  A
C337        H346   1.082       .  S
C338        C341   1.377       .  A
N339        C340   1.354       .  A
N339        H349   1.045       .  S
C340        C341   1.394       .  A
C341        H347   1.082       .  S
N342        C343   1.354       .  A
N342        H350   1.045       .  S
C343        C344   1.391       .  A
C344        H348   1.082       .  S
C351        N357   1.342       .  A
C351        C356   1.385       .  A
C351        C352   1.402       .  A
C352        C353   1.401       .  A
C352        H363   1.082       .  S
C353        C362   1.375       .  A
C353        C354   1.385       .  A
C354        N360   1.344       .  A
C354        C355   1.403       .  A
C355        C356   1.402       .  A
C355        H364   1.082       .  S
C356        C359   1.377       .  A
N357        C358   1.355       .  A
N357        H367   1.045       .  S
C358        C359   1.394       .  A
C359        H365   1.082       .  S
N360        C361   1.354       .  A
N360        H368   1.045       .  S
C361        C362   1.394       .  A
C362        H366   1.083       .  S
C369        N375   1.349       .  A
C369        C374   1.384       .  A
C369        C370   1.408       .  A
C370        C371   1.408       .  A
C370        H381   1.082       .  S
C371        C380   1.384       .  A
C371        C372   1.384       .  A
C372        N378   1.342       .  A
C372        C373   1.402       .  A
C373        C374   1.401       .  A
C373        H382   1.083       .  S
C374        C377   1.374       .  A
N375        C376   1.357       .  A
N375        H385   1.044       .  S
C376        C377   1.396       .  A
C377        H383   1.083       .  S
N378        C379   1.356       .  A
N378        H386   1.045       .  S
C379        C380   1.398       .  A
C380        H384   1.082       .  S
C387        N393   1.341       .  A
C387        C976   1.386       .  A
C387        C972   1.401       .  A
C388        C389   1.400       .  A
C388        C971   1.401       .  A
C388        H983   1.083       .  S
C389        C398   1.375       .  A
C389        C390   1.385       .  A
C390        N396   1.342       .  A
C390        C391   1.403       .  A
C391        C392   1.402       .  A
C391        H400   1.082       .  S
C392        C395   1.378       .  A
C392        C971   1.386       .  A
N393        C394   1.353       .  A
N393        H403   1.045       .  S
C394        C979   1.393       .  A
C395        C978   1.393       .  A
C395        H401   1.082       .  S
N396        C397   1.355       .  A
N396        H404   1.045       .  S
C397        C398   1.394       .  A
C398        H402   1.083       .  S
H399        C972   1.083       .  S
C405        N411   1.341       .  A
C405        C410   1.385       .  A
C405        C406   1.400       .  A
C406        C407   1.399       .  A
C406        H417   1.082       .  S
C407        C416   1.373       .  A
C407        C408   1.385       .  A
C408        N414   1.345       .  A
C408        C409   1.405       .  A
C409        C410   1.405       .  A
C409        H418   1.082       .  S
C410        C413   1.381       .  A
N411        C412   1.353       .  A
N411        H421   1.045       .  S
C412        C413   1.396       .  A
C413        H419   1.082       .  S
N414        C415   1.356       .  A
N414        H422   1.045       .  S
C415        C416   1.392       .  A
C416        H420   1.083       .  S
C423        N429   1.342       .  A
C423        C428   1.385       .  A
C423        C424   1.401       .  A
C424        C425   1.401       .  A
C424        H435   1.083       .  S
C425        C434   1.373       .  A
C425        C426   1.385       .  A
C426        N432   1.345       .  A
C426        C427   1.404       .  A
C427        C428   1.404       .  A
C427        H436   1.082       .  S
C428        C431   1.377       .  A
N429        C430   1.355       .  A
N429        H439   1.045       .  S
C430        C431   1.395       .  A
C431        H437   1.082       .  S
N432        C433   1.356       .  A
N432        H440   1.045       .  S
C433        C434   1.394       .  A
C434       H1022   1.083       .  S
H438       C1018   1.083       .  S
C441        N447   1.346       .  A
C441        C446   1.384       .  A
C441        C442   1.406       .  A
C442        C443   1.406       .  A
C442        H453   1.082       .  S
C443        C452   1.381       .  A
C443        C444   1.385       .  A
C444        N450   1.342       .  A
C444        C445   1.401       .  A
C445        C446   1.400       .  A
C445        H454   1.082       .  S
C446        C449   1.374       .  A
N447        C448   1.357       .  A
N447        H457   1.045       .  S
C448        C449   1.394       .  A
C449        H455   1.083       .  S
N450        C451   1.355       .  A
N450        H458   1.045       .  S
C451        C452   1.397       .  A
C452        H456   1.082       .  S
C459        N465   1.345       .  A
C459        C464   1.385       .  A
C459        C460   1.405       .  A
C460        C461   1.405       .  A
C460        H471   1.082       .  S
C461        C470   1.381       .  A
C461        C462   1.385       .  A
C462        N468   1.341       .  A
C462        C463   1.400       .  A
C463        C464   1.399       .  A
C463        H472   1.083       .  S
C464        C467   1.373       .  A
N465        C466   1.356       .  A
N465        H475   1.045       .  S
C466        C467   1.393       .  A
C467        H473   1.083       .  S
N468        C469   1.353       .  A
N468        H476   1.045       .  S
C469        C470   1.395       .  A
C470        H474   1.082       .  S
C477       N1067   1.340       .  A
C477        C482   1.386       .  A
C477        C478   1.398       .  A
C478        C479   1.398       .  A
C478        H489   1.083       .  S
C479        C488   1.371       .  A
C479        C480   1.386       .  A
C480        N486   1.344       .  A
C480        C481   1.403       .  A
C481        C482   1.402       .  A
C481        H490   1.082       .  S
C482       C1069   1.377       .  A
N483        C484   1.352       .  A
N483       C1061   1.340       .  A
N483        H493   1.045       .  S
C484        C485   1.393       .  A
C485       C1066   1.377       .  A
C485        H491   1.082       .  S
N486        C487   1.355       .  A
N486        H494   1.045       .  S
C487        C488   1.392       .  A
C488        H492   1.083       .  S
C495        N501   1.341       .  A
C495        C500   1.384       .  A
C495        C496   1.401       .  A
C496        C497   1.400   1_545  A
C496        H507   1.083       .  S
C497        C506   1.376       .  A
C497        C498   1.384   1_565  A
C498        N504   1.346   1_545  A
C498        C499   1.407       .  A
C499        C500   1.406       .  A
C499        H508   1.082       .  S
C500        C503   1.384       .  A
N501        C502   1.355       .  A
N501        H511   1.045       .  S
C502        C503   1.398       .  A
C503        H509   1.083       .  S
N504        C505   1.358       .  A
N504        H512   1.045       .  S
C505        C506   1.395       .  A
C506        H510   1.083       .  S
C513        N519   1.341       .  A
C513        C518   1.385       .  A
C513        C514   1.400       .  A
C514        C515   1.399       .  A
C514        H525   1.083       .  S
C515        C524   1.373       .  A
C515        C516   1.384       .  A
C516        N522   1.347       .  A
C516        C517   1.407       .  A
C517        C518   1.406       .  A
C517        H526   1.082       .  S
C518        C521   1.382       .  A
N519        C520   1.354       .  A
N519        H529   1.045       .  S
C520        C521   1.398       .  A
C521        H527   1.083       .  S
N522        C523   1.357       .  A
N522        H530   1.045       .  S
C523        C524   1.395       .  A
C524        H528   1.083       .  S
C531        N537   1.345       .  A
C531        C536   1.384       .  A
C531        C532   1.407       .  A
C532        C533   1.406       .  A
C532        H543   1.082       .  S
C533        C542   1.384       .  A
C533        C534   1.384       .  A
C534        N540   1.339       .  A
C534        C535   1.400       .  A
C535        C536   1.398       .  A
C535        H544   1.083       .  S
C536        C539   1.374       .  A
N537        C538   1.357       .  A
N537        H547   1.045       .  S
C538        C539   1.393       .  A
C539        H545   1.083       .  S
N540        C541   1.355       .  A
N540        H548   1.045       .  S
C541        C542   1.398       .  A
C542        H546   1.082       .  S
C549        N555   1.345       .  A
C549        C554   1.385       .  A
C549        C550   1.405       .  A
C550        C551   1.405       .  A
C550        H561   1.082       .  S
C551        C560   1.380       .  A
C551        C552   1.385       .  A
C552        N558   1.342       .  A
C552        C553   1.401       .  A
C553        C554   1.400       .  A
C553        H562   1.082       .  S
C554        C557   1.375       .  A
N555        C556   1.355       .  A
N555        H565   1.045       .  S
C556        C557   1.393       .  A
C557        H563   1.083       .  S
N558        C559   1.354       .  A
N558        H566   1.045       .  S
C559        C560   1.396       .  A
C560        H564   1.082       .  S
C567        N573   1.344       .  A
C567        C572   1.385       .  A
C567        C568   1.404       .  A
C568        C569   1.403       .  A
C568        H579   1.082       .  S
C569        C578   1.378       .  A
C569        C570   1.385       .  A
C570        N576   1.343       .  A
C570        C571   1.403       .  A
C571        C572   1.402       .  A
C571        H580   1.082       .  S
C572        C575   1.377       .  A
N573        C574   1.356       .  A
N573        H583   1.045       .  S
C574        C575   1.396       .  A
C575        H581   1.083       .  S
N576        C577   1.356       .  A
N576        H584   1.045   1_655  S
C577        C578   1.396       .  A
C578        H582   1.083       .  S
C585        N586   1.356       .  A
C585        N590   1.354       .  A
C585       C1140   1.468       .  S
N586        C587   1.361       .  A
C587        N588   1.363       .  A
C587       C1158   1.473       .  S
N588        C589   1.361       .  A
C589        N590   1.356       .  A
C589       C1125   1.473       .  S
O591       Ni597   1.926       .  S
O591        C612   1.270       .  A
O592       Ni615   1.907       .  S
O592        C601   1.267       .  A
O593       Ni597   1.921       .  S
O593       Ni615   1.912       .  S
O593       Ni609   1.921       .  S
O593        H616   0.966       .  S
C594       C1122   1.470       .  S
C594        O611   1.265       .  A
C594        O603   1.273       .  A
O595       Ni614   1.926       .  S
O595        C601   1.272       .  A
O596       Ni614   1.908       .  S
O596        C598   1.270       .  A
Ni597       O600   1.935       .  S
Ni597       O602   1.908       .  S
C598       C1050   1.468       .  S
C598        O608   1.276       .  A
O599       Ni615   1.907       .  S
O599        C605   1.267       .  A
O600        C605   1.272       .  A
C601       C1086   1.474       .  S
O602        C604   1.271       .  A
O603       Ni614   1.938       .  S
C604       C1071   1.465       .  S
C604        O610   1.276       .  A
C605       C1032   1.473       .  S
H606        O607   0.966       .  S
O607       Ni615   1.918       .  S
O607       Ni609   1.907       .  S
O607       Ni614   1.919       .  S
O608       Ni609   1.939       .  S
Ni609       O613   1.902       .  S
Ni609       O611   1.900       .  S
O610       Ni615   1.936       .  S
C612       C1104   1.472       .  S
C612        O613   1.265       .  A
C617        N618   1.357       .  A
C617        N622   1.357       .  A
C617        C996   1.466       .  S
N618        C619   1.357       .  A
C619        N620   1.358       .  A
C619       C1035   1.473       .  S
N620        C621   1.360       .  A
C621        N622   1.359       .  A
C621       C1014   1.470       .  S
C623        N624   1.352       .  A
C623        N628   1.353       .  A
C623        C978   1.461   1_565  S
N624        C625   1.356       .  A
C625        N626   1.364       .  A
C625        C960   1.477       .  S
N626        C627   1.365       .  A
C627        N628   1.360       .  A
C627       C1107   1.475       .  S
O629       Ni635   1.924   1_455  S
O630       Ni653   1.901       .  S
O630        C639   1.266       .  A
O631       Ni635   1.916       .  S
O631       Ni653   1.908   1_545  S
O631       Ni647   1.922   1_645  S
C632        C906   1.475       .  S
C632        O649   1.265       .  A
C632        O641   1.273       .  A
O633       Ni652   1.928       .  S
O633        C639   1.271   1_455  A
O634       Ni652   1.904       .  S
Ni635       O638   1.939   1_545  S
Ni635       O640   1.906   1_545  S
C636        C924   1.466       .  S
C636        O646   1.277       .  A
O637       Ni653   1.911       .  S
O637        C643   1.268       .  A
O638        C643   1.273       .  A
C639       C1161   1.473       .  S
O640        C642   1.270       .  A
O641       Ni652   1.938       .  S
C642        C942   1.466       .  S
C642        O648   1.275       .  A
C643        C963   1.477       .  S
H644        O645   0.966       .  S
O645       Ni653   1.927   1_455  S
O645       Ni647   1.911       .  S
O645       Ni652   1.917       .  S
Ni647       O649   1.909       .  S
O648       Ni653   1.941       .  S
C650       C1017   1.471       .  S
C650        O651   1.266       .  A
C655        N660   1.353       .  A
C655        C888   1.471       .  S
N656        C657   1.363       .  A
C657        N658   1.364       .  A
C657       C1089   1.476       .  S
C659        N660   1.357       .  A
C659        C909   1.476       .  S
C661        N662   1.353       .  A
C661        N666   1.358       .  A
C661        C945   1.466       .  S
N662        C663   1.355       .  A
C663        N664   1.358       .  A
C663        C852   1.469       .  S
N664        C665   1.361       .  A
C665        N666   1.362       .  A
C665        C873   1.472       .  S
O667       Ni673   1.923       .  S
O667        C688   1.270       .  A
O668       Ni691   1.901       .  S
O668        C677   1.265       .  A
O669       Ni673   1.922   1_556  S
O669       Ni691   1.914       .  S
O669       Ni685   1.922       .  S
O669        H692   0.966       .  S
C670        C801   1.471       .  S
C670        O687   1.265       .  A
C670        O679   1.274       .  A
O671       Ni690   1.931       .  S
O671        C677   1.273       .  A
O672       Ni690   1.908       .  S
O672        C674   1.270       .  A
Ni673       O676   1.933       .  S
Ni673       O678   1.905       .  S
C674        C891   1.470       .  S
C674        O684   1.276       .  A
O675       Ni691   1.906       .  S
O675        C681   1.266   1_556  A
O676        C681   1.271       .  A
C677        C816   1.472       .  S
O678        C680   1.270       .  A
O679       Ni690   1.943       .  S
C680        C981   1.465       .  S
C680        O686   1.275       .  A
C681        C855   1.471       .  S
H682        O683   0.966       .  S
O683       Ni691   1.915       .  S
O683       Ni685   1.906       .  S
O683       Ni690   1.916       .  S
O684       Ni685   1.946       .  S
Ni685       O689   1.899       .  S
Ni685       O687   1.900       .  S
O686       Ni691   1.938   1_554  S
C688        C834   1.469       .  S
C688        O689   1.264   1_554  A
C693        N694   1.352       .  A
C693        N698   1.352       .  A
C693        C927   1.462       .  S
N694        C695   1.359       .  A
C695        N696   1.363       .  A
C695        C780   1.471       .  S
N696        C697   1.363       .  A
C697        N698   1.356       .  A
C697        C798   1.472       .  S
C699        N704   1.353       .  A
C699       C1053   1.466       .  S
N700        C701   1.360       .  A
C701        N702   1.364       .  A
C701        C819   1.474       .  S
C703        N704   1.357       .  A
C703        C765   1.474       .  S
C705        N706   1.351   1_545  A
C705        N710   1.354   1_545  A
C705       C1068   1.460       .  S
N706        C707   1.357       .  A
C707        N708   1.360       .  A
C707        C837   1.467       .  S
N708        C709   1.360       .  A
C709        N710   1.358       .  A
C709        C747   1.470       .  S
O711       Ni717   1.921       .  S
O712       Ni735   1.896       .  S
O712        C721   1.264       .  A
O713       Ni717   1.920   1_566  S
O713       Ni735   1.911       .  S
O713       Ni729   1.927   1_455  S
C714        C762   1.474       .  S
C714        O731   1.267       .  A
C714        O723   1.276       .  A
O715       Ni734   1.932   1_455  S
O715        C721   1.273       .  A
O716       Ni734   1.909       .  S
Ni717       O720   1.935   1_545  S
Ni717       O722   1.907   1_545  S
C718       C1143   1.469       .  S
C718        O728   1.275       .  A
O719       Ni735   1.904       .  S
O719        C725   1.263   1_556  A
O720        C725   1.271       .  A
C721        C783   1.469       .  S
O722        C724   1.271       .  A
O723       Ni734   1.943       .  S
C724        C999   1.468       .  S
C724        O730   1.278       .  A
C725        C744   1.471       .  S
H726        O727   0.966   1_455  S
O727       Ni735   1.909   1_655  S
O727       Ni729   1.905       .  S
O727       Ni734   1.914       .  S
Ni729       O731   1.904       .  S
O730       Ni735   1.942   1_554  S
C732        C870   1.470       .  S
C732        O733   1.266   1_554  A
C737        N743   1.347       .  A
C737        C742   1.384       .  A
C737        C738   1.407       .  A
C738        C739   1.407       .  A
C738        H749   1.082   1_554  S
C739        C748   1.382       .  A
C739        C740   1.385       .  A
C740        N746   1.339       .  A
C740        C741   1.398       .  A
C741        C742   1.397       .  A
C741        H750   1.083   1_565  S
C742        C745   1.371       .  A
N743        C744   1.358       .  A
N743        H753   1.045   1_554  S
C744        C745   1.392       .  A
C745        H751   1.083   1_565  S
N746        C747   1.354       .  A
N746        H754   1.045   1_565  S
C747        C748   1.397       .  A
C748        H752   1.082       .  S
C755        N761   1.341       .  A
C755        C760   1.385       .  A
C756        H767   1.083       .  S
C757        C758   1.384       .  A
C758        N764   1.349       .  A
C758        C759   1.408       .  A
C759        C760   1.408       .  A
C759        H768   1.082       .  S
C760        C763   1.383       .  A
N761        C762   1.354       .  A
C762        C763   1.399       .  A
C763        H769   1.082       .  S
N764        C765   1.358       .  A
N764        H772   1.044       .  S
C766        H770   1.083       .  S
C773        N779   1.348       .  A
C773        C778   1.384       .  A
C773        C774   1.407       .  A
C774        C775   1.407       .  A
C774        H785   1.082       .  S
C775        C784   1.381       .  A
C775        C776   1.385       .  A
C776        N782   1.340       .  A
C776        C777   1.397       .  A
C777        C778   1.397       .  A
C777        H786   1.083       .  S
C778        C781   1.369       .  A
N779        C780   1.358       .  A
N779        H789   1.045       .  S
C780        C781   1.392       .  A
C781        H787   1.083       .  S
N782        C783   1.353       .  A
N782        H790   1.045       .  S
C783        C784   1.398       .  A
C784        H788   1.083       .  S
C791        N797   1.347       .  A
C791        C796   1.384       .  A
C791        C792   1.406       .  A
C792        C793   1.406       .  A
C792        H803   1.082       .  S
C793        C802   1.380       .  A
C793        C794   1.385       .  A
C794        N800   1.341       .  A
C794        C795   1.400       .  A
C795        C796   1.399       .  A
C795        H804   1.083       .  S
C796        C799   1.372       .  A
N797        C798   1.357       .  A
N797        H807   1.045       .  S
C798        C799   1.394       .  A
C799        H805   1.083       .  S
N800        C801   1.354       .  A
N800        H808   1.045       .  S
C801        C802   1.398       .  A
C802        H806   1.082       .  S
C809        N815   1.340       .  A
C809        C814   1.385       .  A
C809        C810   1.398       .  A
C810        C811   1.398       .  A
C810        H821   1.083       .  S
C811        C820   1.371       .  A
C811        C812   1.384       .  A
C812        N818   1.348       .  A
C812        C813   1.408       .  A
C813        C814   1.408       .  A
C813        H822   1.082       .  S
C814        C817   1.383       .  A
N815        C816   1.353       .  A
N815        H825   1.045       .  S
C816        C817   1.399       .  A
C817        H823   1.083       .  S
N818        C819   1.358       .  A
N818        H826   1.045       .  S
C819        C820   1.393       .  A
C820        H824   1.083       .  S
C827        N833   1.339       .  A
C827        C832   1.385       .  A
C827        C828   1.398       .  A
C828        C829   1.397       .  A
C828        H839   1.083       .  S
C829        C838   1.370       .  A
C829        C830   1.385       .  A
C830        N836   1.345       .  A
C830        C831   1.405       .  A
C831        C832   1.405       .  A
C831        H840   1.082   1_554  S
C832        C835   1.380       .  A
N833        C834   1.353       .  A
N833        H843   1.045       .  S
C834        C835   1.397       .  A
C835        H841   1.083   1_554  S
N836        C837   1.356       .  A
N836        H844   1.045       .  S
C837        C838   1.393       .  A
C838        H842   1.083       .  S
C845        N851   1.339       .  A
C845        C850   1.385       .  A
C845        C846   1.399       .  A
C846        C847   1.398       .  A
C846        H857   1.083       .  S
C847        C856   1.372       .  A
C847        C848   1.384       .  A
C848        N854   1.346       .  A
C848        C849   1.407       .  A
C849        C850   1.406       .  A
C849        H858   1.082       .  S
C850        C853   1.382       .  A
N851        C852   1.354       .  A
N851        H861   1.045       .  S
C852        C853   1.397       .  A
C853        H859   1.082       .  S
N854        C855   1.357       .  A
N854        H862   1.045   1_554  S
C855        C856   1.393       .  A
C856        H860   1.083       .  S
C863        N869   1.341       .  A
C863        C868   1.385       .  A
C863        C864   1.402       .  A
C864        C865   1.401       .  A
C864        H875   1.082       .  S
C865        C874   1.377       .  A
C865        C866   1.384       .  A
C866        N872   1.343       .  A
C866        C867   1.404       .  A
C867        C868   1.403       .  A
C867        H876   1.082       .  S
C868        C871   1.379       .  A
N869        C870   1.355       .  A
C870        C871   1.396       .  A
C871        H877   1.083   1_554  S
N872        C873   1.356       .  A
N872        H880   1.045       .  S
C873        C874   1.395       .  A
C874        H878   1.082       .  S
C881        N887   1.342       .  A
C881        C886   1.385       .  A
C881        C882   1.404       .  A
C882        C883   1.402       .  A
C882        H893   1.082       .  S
C883        C892   1.378       .  A
C883        C884   1.385       .  A
C884        N890   1.344       .  A
C884        C885   1.405       .  A
C885        C886   1.404       .  A
C885        H894   1.082       .  S
C886        C889   1.382       .  A
N887        C888   1.355       .  A
N887        H897   1.045       .  S
C888        C889   1.395       .  A
C889        H895   1.082       .  S
N890        C891   1.356       .  A
N890        H898   1.045       .  S
C891        C892   1.395       .  A
C892        H896   1.083       .  S
C899        N905   1.340       .  A
C899        C904   1.385       .  A
C899        C900   1.398       .  A
C900        C901   1.397       .  A
C901        C902   1.384       .  A
C902        N908   1.350       .  A
C902        C903   1.410       .  A
C903        C904   1.411       .  A
C903        H912   1.082       .  S
C904        C907   1.386       .  A
N905        C906   1.353       .  A
C906        C907   1.401       .  A
C907        H913   1.082       .  S
N908        C909   1.359       .  A
N908        H916   1.044       .  S
C910        H914   1.083       .  S
C917        N923   1.342       .  A
C917        C922   1.385       .  A
C917        C918   1.400       .  A
C918        C919   1.400       .  A
C918        H929   1.082       .  S
C919        C928   1.374       .  A
C919        C920   1.386       .  A
C920        N926   1.344       .  A
C920        C921   1.403       .  A
C921        C922   1.402       .  A
C921        H930   1.082       .  S
C922        C925   1.377       .  A
N923        C924   1.354       .  A
N923        H933   1.045       .  S
C924        C925   1.394       .  A
C925        H931   1.082       .  S
N926        C927   1.354       .  A
N926        H934   1.045       .  S
C927        C928   1.391       .  A
C928        H932   1.082       .  S
C935        N941   1.342       .  A
C935        C940   1.385       .  A
C935        C936   1.402       .  A
C936        C937   1.401       .  A
C936        H947   1.082       .  S
C937        C946   1.375       .  A
C937        C938   1.385       .  A
C938        N944   1.344       .  A
C938        C939   1.403       .  A
C939        C940   1.402       .  A
C939        H948   1.082       .  S
C940        C943   1.377       .  A
N941        C942   1.355       .  A
N941        H951   1.045       .  S
C942        C943   1.394       .  A
C943        H949   1.082       .  S
N944        C945   1.354       .  A
N944        H952   1.045       .  S
C945        C946   1.394       .  A
C946        H950   1.083       .  S
C953        N959   1.349       .  A
C953        C958   1.384       .  A
C953        C954   1.408       .  A
C954        C955   1.408       .  A
C954        H965   1.082       .  S
C955        C964   1.384       .  A
C955        C956   1.384       .  A
C956        N962   1.342   1_565  A
C956        C957   1.402       .  A
C957        C958   1.401       .  A
C957        H966   1.083   1_565  S
C958        C961   1.374       .  A
N959        C960   1.357       .  A
N959        H969   1.044       .  S
C960        C961   1.396       .  A
C961        H967   1.083   1_565  S
N962        C963   1.356   1_545  A
N962        H970   1.045       .  S
C963        C964   1.398       .  A
C964        H968   1.082       .  S
C971        N977   1.341       .  A
C972        C973   1.400       .  A
C973        C982   1.375       .  A
C973        C974   1.385       .  A
C974        N980   1.342       .  A
C974        C975   1.403       .  A
C975        C976   1.402       .  A
C975        H984   1.082       .  S
C976        C979   1.378       .  A
N977        C978   1.353       .  A
N977        H987   1.045   1_545  S
C979        H985   1.082       .  S
N980        C981   1.355       .  A
N980        H988   1.045       .  S
C981        C982   1.394       .  A
C982        H986   1.083       .  S
C989        N995   1.341       .  A
C989        C994   1.385       .  A
C989        C990   1.400       .  A
C990        C991   1.399       .  A
C990       H1001   1.082       .  S
C991       C1000   1.373       .  A
C991        C992   1.385       .  A
C992        N998   1.345       .  A
C992        C993   1.405       .  A
C993        C994   1.405       .  A
C993       H1002   1.082       .  S
C994        C997   1.381       .  A
N995        C996   1.353       .  A
N995       H1005   1.045       .  S
C996        C997   1.396       .  A
C997       H1003   1.082       .  S
N998        C999   1.356       .  A
N998       H1006   1.045       .  S
C999       C1000   1.392       .  A
C1000      H1004   1.083       .  S
C1007      N1013   1.342       .  A
C1007      C1012   1.385       .  A
C1007      C1008   1.401       .  A
C1008      C1009   1.401       .  A
C1008      H1019   1.083       .  S
C1009      C1018   1.373       .  A
C1009      C1010   1.385       .  A
C1010      N1016   1.345       .  A
C1010      C1011   1.404       .  A
C1011      C1012   1.404       .  A
C1011      H1020   1.082       .  S
C1012      C1015   1.377       .  A
N1013      C1014   1.355       .  A
N1013      H1023   1.045       .  S
C1014      C1015   1.395       .  A
C1015      H1021   1.082       .  S
N1016      C1017   1.356       .  A
N1016      H1024   1.045       .  S
C1017      C1018   1.394       .  A
C1025      N1031   1.346       .  A
C1025      C1030   1.384       .  A
C1025      C1026   1.406       .  A
C1026      C1027   1.406       .  A
C1026      H1037   1.082       .  S
C1027      C1036   1.381       .  A
C1027      C1028   1.385       .  A
C1028      N1034   1.342       .  A
C1028      C1029   1.401       .  A
C1029      C1030   1.400       .  A
C1029      H1038   1.082       .  S
C1030      C1033   1.374       .  A
N1031      C1032   1.357       .  A
N1031      H1041   1.045       .  S
C1032      C1033   1.394       .  A
C1033      H1039   1.083       .  S
N1034      C1035   1.355       .  A
N1034      H1042   1.045       .  S
C1035      C1036   1.397       .  A
C1036      H1040   1.082       .  S
C1043      N1049   1.345       .  A
C1043      C1048   1.385       .  A
C1043      C1044   1.405       .  A
C1044      C1045   1.405       .  A
C1044      H1055   1.082       .  S
C1045      C1054   1.381       .  A
C1045      C1046   1.385       .  A
C1046      N1052   1.341       .  A
C1046      C1047   1.400       .  A
C1047      C1048   1.399       .  A
C1047      H1056   1.083       .  S
C1048      C1051   1.373       .  A
N1049      C1050   1.356       .  A
N1049      H1059   1.045       .  S
C1050      C1051   1.393       .  A
C1051      H1057   1.083       .  S
N1052      C1053   1.353       .  A
N1052      H1060   1.045       .  S
C1053      C1054   1.395       .  A
C1054      H1058   1.082       .  S
C1061      C1066   1.386       .  A
C1061      C1062   1.398       .  A
C1062      C1063   1.398       .  A
C1062      H1073   1.083       .  S
C1063      C1072   1.371       .  A
C1063      C1064   1.386       .  A
C1064      N1070   1.344       .  A
C1064      C1065   1.403       .  A
C1065      C1066   1.402       .  A
C1065      H1074   1.082       .  S
N1067      C1068   1.352       .  A
N1067      H1077   1.045   1_545  S
C1068      C1069   1.393       .  A
C1069      H1075   1.082       .  S
N1070      C1071   1.355       .  A
N1070      H1078   1.045       .  S
C1071      C1072   1.392       .  A
C1072      H1076   1.083       .  S
C1079      N1085   1.341       .  A
C1079      C1084   1.384       .  A
C1079      C1080   1.401       .  A
C1080      C1081   1.400       .  A
C1080      H1091   1.083       .  S
C1081      C1090   1.376       .  A
C1081      C1082   1.384       .  A
C1082      N1088   1.346       .  A
C1082      C1083   1.407       .  A
C1083      C1084   1.406       .  A
C1083      H1092   1.082       .  S
C1084      C1087   1.384       .  A
N1085      C1086   1.355       .  A
N1085      H1095   1.045       .  S
C1086      C1087   1.398       .  A
C1087      H1093   1.083       .  S
N1088      C1089   1.358       .  A
N1088      H1096   1.045       .  S
C1089      C1090   1.395       .  A
C1090      H1094   1.083       .  S
C1097      N1103   1.341       .  A
C1097      C1102   1.385       .  A
C1097      C1098   1.400       .  A
C1098      C1099   1.399       .  A
C1098      H1109   1.083       .  S
C1099      C1108   1.373       .  A
C1099      C1100   1.384       .  A
C1100      N1106   1.347       .  A
C1100      C1101   1.407       .  A
C1101      C1102   1.406       .  A
C1101      H1110   1.082       .  S
C1102      C1105   1.382       .  A
N1103      C1104   1.354       .  A
N1103      H1113   1.045       .  S
C1104      C1105   1.398       .  A
C1105      H1111   1.083       .  S
N1106      C1107   1.357       .  A
N1106      H1114   1.045       .  S
C1107      C1108   1.395       .  A
C1108      H1112   1.083       .  S
C1115      N1121   1.345       .  A
C1115      C1120   1.384       .  A
C1115      C1116   1.407       .  A
C1116      C1117   1.406       .  A
C1116      H1127   1.082       .  S
C1117      C1126   1.384       .  A
C1117      C1118   1.384       .  A
C1118      N1124   1.339       .  A
C1118      C1119   1.400       .  A
C1119      C1120   1.398       .  A
C1119      H1128   1.083       .  S
C1120      C1123   1.374       .  A
N1121      C1122   1.357       .  A
N1121      H1131   1.045       .  S
C1122      C1123   1.393       .  A
C1123      H1129   1.083       .  S
N1124      C1125   1.355       .  A
N1124      H1132   1.045       .  S
C1125      C1126   1.398       .  A
C1126      H1130   1.082       .  S
C1133      N1139   1.345       .  A
C1133      C1138   1.385       .  A
C1133      C1134   1.405       .  A
C1134      C1135   1.405       .  A
C1134      H1145   1.082       .  S
C1135      C1144   1.380       .  A
C1135      C1136   1.385       .  A
C1136      N1142   1.342       .  A
C1136      C1137   1.401       .  A
C1137      C1138   1.400       .  A
C1137      H1146   1.082       .  S
C1138      C1141   1.375       .  A
N1139      C1140   1.355       .  A
N1139      H1149   1.045       .  S
C1140      C1141   1.393       .  A
C1141      H1147   1.083       .  S
N1142      C1143   1.354       .  A
N1142      H1150   1.045       .  S
C1143      C1144   1.396       .  A
C1144      H1148   1.082       .  S
C1151      N1157   1.344       .  A
C1151      C1156   1.385       .  A
C1151      C1152   1.404       .  A
C1152      C1153   1.403       .  A
C1152      H1163   1.082       .  S
C1153      C1162   1.378       .  A
C1153      C1154   1.385       .  A
C1154      N1160   1.343       .  A
C1154      C1155   1.403       .  A
C1155      C1156   1.402       .  A
C1155      H1164   1.082       .  S
C1156      C1159   1.377       .  A
N1157      C1158   1.356       .  A
N1157      H1167   1.045       .  S
C1158      C1159   1.396       .  A
C1159      H1165   1.083       .  S
N1160      C1161   1.356       .  A
N1160      H1168   1.045   1_655  S
C1161      C1162   1.396       .  A
C1162      H1166   1.083       .  S
