geometry optimzed in LAMMPS
_audit_creation_date              2020-11-30 
_audit_creation_method            'lammps2cif' 
_symmetry_space_group_name_H-M    'P1' 
_symmetry_Int_Tables_number       1 
_symmetry_cell_setting            triclinic 
loop_ 
_symmetry_equiv_pos_as_xyz 
  x,y,z 
_cell_length_a                    59.86991498 
_cell_length_b                    59.325048141495394 
_cell_length_c                    29.426433844712317 
_cell_angle_alpha                 89.55118506502335 
_cell_angle_beta                  90.40186661071951 
_cell_angle_gamma                 122.9678185745321 
loop_ 
_atom_site_label 
_atom_site_type_symbol 
_atom_site_fract_x 
_atom_site_fract_y 
_atom_site_fract_z 
_atom_site_charge 
In1        In  0.33731703  0.27064376  0.86426782     1.36900
C2          C  0.28835421  0.22681357  0.87626745     0.76900
O3          O  0.34199461  0.28707685  0.93655365    -0.61600
O4          O  0.34099109  0.30931206  0.88107536    -0.52500
C5          C  0.38320430  0.27340583  0.87222649     0.69500
O6          O  0.36119094  0.25304576  0.88438627    -0.47300
C7          C  0.33719749  0.27275583  0.77274501     0.74200
O8          O  0.30906411  0.22845878  0.89068641    -0.59200
O9          O  0.33672801  0.28992459  0.79709623    -0.49300
O10         O  0.29241880  0.24818789  0.85881855    -0.55600
C11         C  0.34349154  0.30814644  0.92347082     0.84400
O12         O  0.38197369  0.29281752  0.85811971    -0.57500
O13         O  0.33759564  0.25477871  0.79503309    -0.60800
In14       In  0.45220968  0.27343025  0.86504021     1.36900
C15         C  0.47905157  0.30638918  0.93234036     0.76900
O16         O  0.43019723  0.29449593  0.86107634    -0.61600
O17         O  0.40858609  0.25336020  0.88048406    -0.52500
C18         C  0.45578527  0.27679797  0.77511490     0.69500
O19         O  0.47478779  0.29389515  0.79993982    -0.47300
C20         C  0.45613969  0.23165757  0.87784190     0.74200
O21         O  0.98659376  0.31307422  0.89172063    -0.59200
O22         O  0.43606796  0.23188594  0.88941222    -0.49300
O23         O  0.46007989  0.28244483  0.93808900    -0.55600
C24         C  0.40801979  0.27390704  0.87197536     0.84400
O25         O  0.43580215  0.25856685  0.79632320    -0.57500
O26         O  0.47518120  0.25348304  0.86172621    -0.60800
C27         C  0.14551936  0.01744478  0.01250798     0.85800
C28         C  0.11932609  0.49148406  0.99868329    -0.54500
C29         C  0.12188575  0.47068198  0.98746499     0.08700
C30         C  0.15076312  0.47782926  0.99071540     0.19700
C31         C  0.15627809  0.00841932  0.05186854    -0.55200
C32         C  0.15902550  0.48760211  0.04019572     0.08800
C33         C  0.16477102  0.02370116  0.97399960    -0.54700
C34         C  0.16713066  0.50330092  0.96173740     0.09400
H35         H  0.10018314  0.48947880  0.99958979     0.13900
H36         H  0.15311577  0.46121526  0.98075940    -0.00400
H37         H  0.16045514  0.01668742  0.08584994     0.14200
H38         H  0.17575608  0.04316837  0.95691954     0.14000
C39         C  0.47503282  0.35067011  0.01854179     0.85800
C40         C  0.48393040  0.33977864  0.05803055    -0.54500
C41         C  0.00358993  0.33554306  0.04568104     0.08700
C42         C  0.01203501  0.34217951  0.99528244     0.19700
C43         C  0.50124811  0.37598474  0.00291694    -0.55200
C44         C  0.02039569  0.37160551  0.98989790     0.08800
C45         C  0.46700605  0.33018415  0.98096318    -0.54700
C46         C  0.48597522  0.32588538  0.96832386     0.09400
H47         H  0.47662797  0.33695753  0.09255711     0.13900
H48         H  0.02759875  0.33854516  0.98479698    -0.00400
H49         H  0.50470731  0.39595139  0.00404145     0.14200
H50         H  0.44744323  0.31982682  0.96488804     0.14000
In51       In  0.16995091  0.44076764  0.13098868     1.36900
C52         C  0.12160687  0.39583360  0.12580630     0.76900
O53         O  0.16804712  0.42303306  0.19841925    -0.61600
O54         O  0.17641005  0.46283767  0.19673651    -0.52500
C55         C  0.21528924  0.44336264  0.11870903     0.69500
O56         O  0.19293775  0.42329416  0.10741673    -0.47300
C57         C  0.16552697  0.47293869  0.07288086     0.74200
O58         O  0.14129927  0.39888256  0.10453875    -0.59200
O59         O  0.16660146  0.47629206  0.11524563    -0.49300
O60         O  0.12630889  0.41615167  0.14765296    -0.55600
C61         C  0.17254434  0.44318488  0.22046966     0.84400
O62         O  0.21480984  0.46305290  0.13311356    -0.57500
O63         O  0.16849776  0.45445604  0.06052245    -0.60800
In64       In  0.04969538  0.32283152  0.13580260     1.36900
C65         C  0.09555075  0.37036708  0.12684877     0.76900
O66         O  0.03641386  0.32564049  0.06533306    -0.61600
O67         O  0.01510531  0.32752138  0.12045180    -0.52500
C68         C  0.04707232  0.27680798  0.12295808     0.69500
O69         O  0.06717008  0.29952911  0.11330142    -0.47300
C70         C  0.04649567  0.32049732  0.22622089     0.74200
O71         O  0.09104241  0.34952442  0.10710448    -0.59200
O72         O  0.02743014  0.31690460  0.20172815    -0.49300
O73         O  0.07626732  0.36725084  0.14949517    -0.55600
C74         C  0.01832945  0.32891270  0.07804652     0.84400
O75         O  0.02725447  0.27718080  0.13607878    -0.57500
O76         O  0.06647352  0.32472777  0.20454782    -0.60800
In77       In  0.21694291  0.15347085  0.86260420     1.36900
C78         C  0.26209383  0.20133828  0.87577538     0.76900
O79         O  0.23101274  0.15040832  0.79360807    -0.61600
O80         O  0.20097416  0.15887382  0.79516627    -0.52500
C81         C  0.21401541  0.10710130  0.87177739     0.69500
O82         O  0.23393822  0.12927934  0.88448086    -0.47300
C83         C  0.17975356  0.14774339  0.92134119     0.74200
O84         O  0.25861511  0.17966220  0.89050234    -0.59200
O85         O  0.17643564  0.14555688  0.87886283    -0.49300
O86         O  0.24183737  0.19889902  0.85718986    -0.55600
C87         C  0.21585332  0.15485024  0.77106715     0.84400
O88         O  0.19486910  0.10829157  0.85702940    -0.57500
O89         O  0.20249454  0.15376141  0.93401286    -0.60800
In90       In  0.21679066  0.03935553  0.85868276     1.36900
C91         C  0.18512715  0.50889069  0.92436475     0.76900
O92         O  0.23732583  0.51743878  0.85521904    -0.61600
O93         O  0.25885331  0.05808898  0.87862127    -0.52500
C94         C  0.21531947  0.03673997  0.76903251     0.69500
O95         O  0.19769350  0.51743268  0.79284236    -0.47300
C96         C  0.21407106  0.08239155  0.87059388     0.74200
O97         O  0.17721591  0.50506572  0.88360098    -0.59200
O98         O  0.23408977  0.08184829  0.88201435    -0.49300
O99         O  0.20965441  0.02547579  0.93009026    -0.55600
C100        C  0.25918652  0.03767111  0.86842022     0.84400
O101        O  0.23306082  0.05662592  0.79109436    -0.57500
O102        O  0.19489204  0.06055372  0.85507302    -0.60800
C103        C  0.11268640  0.12640687  0.97612183     0.85800
C104        C  0.13331428  0.13465316  0.93800839    -0.54500
C105        C  0.15826847  0.14252446  0.95329270     0.08700
C106        C  0.16001981  0.14088416  0.00588181     0.19700
C107        C  0.11366247  0.10436961  0.00182528    -0.55200
C108        C  0.13825489  0.11128737  0.01642044     0.08800
C109        C  0.12499396  0.15000468  0.00833350    -0.54700
C110        C  0.14916560  0.15746321  0.02509151     0.09400
H111        H  0.12838221  0.13270899  0.90212796     0.13900
H112        H  0.17998187  0.14707360  0.01910477    -0.00400
H113        H  0.09716843  0.08344321  0.00077284     0.14200
H114        H  0.11439030  0.15915741  0.01943909     0.14000
C115        C  0.36040451  0.37594028  0.97020508     0.85800
C116        C  0.38419975  0.37956201  0.99725868    -0.54500
C117        C  0.38068292  0.35629483  0.01444555     0.08700
C118        C  0.35218300  0.33147173  0.00657426     0.19700
C119        C  0.35311080  0.35380035  0.93577258    -0.55200
C120        C  0.34874835  0.33047845  0.95395900     0.08800
C121        C  0.33815092  0.36309360  0.00519392    -0.54700
C122        C  0.33370372  0.34024989  0.02484076     0.09400
H123        H  0.40315887  0.39837826  0.00067843     0.13900
H124        H  0.34850190  0.31258804  0.02182308    -0.00400
H125        H  0.35195109  0.35667192  0.89952812     0.14200
H126        H  0.32754466  0.37234016  0.01571578     0.14000
In127      In  0.05223100  0.21031331  0.13475937     1.36900
C128        C  0.04789037  0.25246453  0.12281002     0.76900
O129        O  0.04595837  0.19721638  0.06279902    -0.61600
O130        O  0.51460321  0.17236523  0.10865780    -0.52500
C131        C  0.09581021  0.20821601  0.12877376     0.69500
O132        O  0.09482990  0.22758658  0.11330403    -0.47300
C133        C  0.04895945  0.20802585  0.22508386     0.74200
O134        O  0.06907070  0.25336661  0.11521367    -0.59200
O135        O  0.03173730  0.18873039  0.20079995    -0.49300
O136        O  0.02830176  0.22952707  0.13363202    -0.55600
C137        C  0.02379823  0.17561225  0.06894662     0.84400
O138        O  0.07443531  0.18972186  0.14671565    -0.57500
O139        O  0.06710970  0.22779672  0.20315137    -0.60800
In140      In  0.16578425  0.20924252  0.13119131     1.36900
C141        C  0.21403523  0.25275662  0.12079773     0.76900
O142        O  0.16951749  0.22576412  0.19999646    -0.61600
O143        O  0.16379643  0.18715990  0.19655465    -0.52500
C144        C  0.12023010  0.20776920  0.12751581     0.69500
O145        O  0.14207265  0.22729946  0.11281256    -0.47300
C146        C  0.15965546  0.17737011  0.06207355     0.74200
O147        O  0.19312527  0.25197458  0.11099194    -0.59200
O148        O  0.16505500  0.17316658  0.10158882    -0.49300
O149        O  0.21053434  0.23069265  0.13335475    -0.55600
C150        C  0.16684151  0.20600137  0.22136513     0.84400
O151        O  0.12131605  0.18834928  0.14244291    -0.57500
O152        O  0.15907803  0.19818462  0.05832523    -0.60800
In153      In  0.28107026  0.43859482  0.12982092     1.36900
C154        C  0.23942641  0.44273692  0.11885642     0.76900
O155        O  0.26405465  0.42368664  0.19822791    -0.61600
O156        O  0.30289630  0.45936321  0.19530612    -0.52500
C157        C  0.28430137  0.39551167  0.12587833     0.69500
O158        O  0.26347146  0.39488929  0.11546623    -0.47300
C159        C  0.31174040  0.46521348  0.05917440     0.74200
O160        O  0.23892781  0.42185576  0.10860283    -0.59200
O161        O  0.31758830  0.47549343  0.09843220    -0.49300
O162        O  0.26171512  0.46215904  0.13242981    -0.55600
C163        C  0.28385394  0.44193378  0.21981832     0.84400
O164        O  0.30376680  0.41831498  0.13757028    -0.56300
O165        O  0.28977474  0.44304927  0.05637068    -0.60800
In166      In  0.28414402  0.32559487  0.13246336     1.36900
C167        C  0.23990994  0.27808610  0.12123071     0.76900
O168        O  0.29253420  0.32678134  0.05887346    -0.61600
O169        O  0.32112950  0.32828837  0.10374902    -0.52500
C170        C  0.28522153  0.37123232  0.12601946     0.69500
O171        O  0.26534503  0.34861883  0.11526867    -0.47300
C172        C  0.28721430  0.32443333  0.22302676     0.74200
O173        O  0.24203302  0.29980026  0.11097642    -0.59200
O174        O  0.30655947  0.32917544  0.19835681    -0.49300
O175        O  0.26108128  0.28033259  0.13501407    -0.55600
C176        C  0.31484633  0.32964685  0.06319672     0.84400
O177        O  0.30529712  0.37095372  0.13838675    -0.57500
O178        O  0.26703471  0.31994326  0.20137225    -0.60800
C179        C  0.35644269  0.46835717  0.96518978     0.85800
C180        C  0.34515215  0.47846823  0.92970318    -0.54500
C181        C  0.33937683  0.49619352  0.94594062     0.08700
C182        C  0.34542857  0.00236707  0.99725260     0.19700
C183        C  0.38078464  0.49426535  0.98499849    -0.55200
C184        C  0.37507551  0.01217512  0.00139472     0.08800
C185        C  0.33649828  0.45735034  0.00415700    -0.54700
C186        C  0.33055586  0.47465321  0.02106434     0.09400
H187        H  0.34351560  0.47331837  0.89396776     0.13900
H188        H  0.34066079  0.01669224  0.01079237    -0.00400
H189        H  0.40093856  0.49886992  0.98524723     0.14200
H190        H  0.32791811  0.43722481  0.01804637     0.14000
C191        C  0.01673879  0.12542043  0.98137323     0.85800
C192        C  0.98993379  0.10240523  0.99926195    -0.54500
C193        C  0.47376483  0.10989524  0.01599522     0.08700
C194        C  0.48536336  0.14026209  0.01056010     0.19700
C195        C  0.00856690  0.13797424  0.94421372    -0.55200
C196        C  0.49194934  0.14550446  0.95915906     0.08800
C197        C  0.02877925  0.14645082  0.01882273    -0.54700
C198        C  0.01283864  0.15437025  0.03430883     0.09400
H199        H  0.48274733  0.08147624  0.99370390     0.13900
H200        H  0.47205226  0.14650640  0.02297053    -0.00400
H201        H  0.01323509  0.13862316  0.90851049     0.14200
H202        H  0.04878787  0.15467967  0.03204249     0.14000
In203      In  0.44916708  0.15971540  0.86576565     1.36900
C204        C  0.45573237  0.20688737  0.87884004     0.76900
O205        O  0.45896170  0.15490322  0.93793274    -0.61600
O206        O  0.98299250  0.15555549  0.88471086    -0.52500
C207        C  0.40303370  0.11303780  0.86916462     0.69500
O208        O  0.40609658  0.13427622  0.88474969    -0.47300
C209        C  0.45192085  0.16228931  0.77556566     0.74200
O210        O  0.43568356  0.18520680  0.89283361    -0.59200
O211        O  0.47036297  0.16396134  0.79954602    -0.49300
O212        O  0.47386410  0.20490308  0.86189331    -0.55600
C213        C  0.47794148  0.15272436  0.92666756     0.84400
O214        O  0.42386373  0.11534030  0.85421075    -0.57500
O215        O  0.43266787  0.15952730  0.79767366    -0.60800
In216      In  0.32952370  0.04341663  0.85567450     1.36900
C217        C  0.37701519  0.08795668  0.86620684     0.76900
O218        O  0.32951616  0.02941013  0.92710113    -0.61600
O219        O  0.33354715  0.50912065  0.87185677    -0.52500
C220        C  0.28378967  0.03847601  0.86822458     0.69500
O221        O  0.30569185  0.05959169  0.87794906    -0.47300
C222        C  0.32778500  0.04156018  0.76559875     0.74200
O223        O  0.35619302  0.08534769  0.88188464    -0.59200
O224        O  0.32432068  0.02208654  0.78929984    -0.49300
O225        O  0.37364787  0.06756395  0.84642827    -0.55600
C226        C  0.33336047  0.51158332  0.91434568     0.84400
O227        O  0.28504614  0.51904861  0.85498309    -0.57500
O228        O  0.33146910  0.06132447  0.78789399    -0.60800
In229      In  0.45237901  0.27565616  0.63535455     1.36900
C230        C  0.48055726  0.30927257  0.56963183     0.76900
O231        O  0.47517291  0.25581184  0.63833125    -0.61600
O232        O  0.43539344  0.23409196  0.61230600    -0.52500
C233        C  0.45583017  0.27727319  0.72535187     0.69500
O234        O  0.47480171  0.29492018  0.70113266    -0.47300
C235        C  0.40839874  0.27608667  0.62537115     0.74200
O236        O  0.98497506  0.31645579  0.61070198    -0.59200
O237        O  0.40931384  0.25597504  0.61558203    -0.49300
O238        O  0.46417326  0.28462256  0.56307035    -0.55600
C239        C  0.45564440  0.23390590  0.62347509     0.84400
O240        O  0.43595034  0.25938460  0.70351328    -0.57500
O241        O  0.43015617  0.29629181  0.63869579    -0.60800
In242      In  0.33788638  0.27265856  0.63104173     1.36900
C243        C  0.28898336  0.22910020  0.61803312     0.76900
O244        O  0.33782008  0.25561114  0.69971760    -0.61600
O245        O  0.33711644  0.29090669  0.69865217    -0.52500
C246        C  0.38362330  0.27548673  0.62423728     0.69500
O247        O  0.36177938  0.25534611  0.61091070    -0.47300
C248        C  0.34510217  0.31092623  0.57185556     0.74200
O249        O  0.30967385  0.23116999  0.60292980    -0.59200
O250        O  0.34257255  0.31189607  0.61419100    -0.49300
O251        O  0.29299599  0.25005693  0.63669642    -0.55600
C252        C  0.33736236  0.27323303  0.72249795     0.84400
O253        O  0.38226271  0.29457867  0.63898144    -0.57500
O254        O  0.34291578  0.28962461  0.55882716    -0.60800
C255        C  0.14683046  0.01650052  0.47300034     0.85800
C256        C  0.15768425  0.00753838  0.43453298    -0.54500
C257        C  0.16158998  0.48762709  0.44784539     0.08700
C258        C  0.15398656  0.47828392  0.49776858     0.19700
C259        C  0.12131972  0.49021140  0.48817905    -0.55200
C260        C  0.12475904  0.47005596  0.50082437     0.08800
C261        C  0.16678158  0.02391638  0.51127616    -0.54700
C262        C  0.16991881  0.50422122  0.52523850     0.09400
H263        H  0.16090833  0.01472890  0.39984252     0.13900
H264        H  0.15748294  0.46261060  0.50922022    -0.00400
H265        H  0.10189199  0.48759916  0.48749647     0.14200
H266        H  0.17746729  0.04362425  0.52730767     0.14000
C267        C  0.47635637  0.35248083  0.48006217     0.85800
C268        C  0.50316049  0.37779579  0.49371185    -0.54500
C269        C  0.02205103  0.37300954  0.50742597     0.08700
C270        C  0.01284647  0.34328777  0.50459396     0.19700
C271        C  0.48417756  0.34028039  0.44175642    -0.55200
C272        C  0.00360119  0.33573226  0.45476252     0.08800
C273        C  0.46851973  0.33291693  0.51953400    -0.54700
C274        C  0.48728709  0.32830326  0.53269908     0.09400
H275        H  0.50718023  0.39794414  0.49064287     0.13900
H276        H  0.02818276  0.33932368  0.51563900    -0.00400
H277        H  0.47662330  0.33717020  0.40724783     0.14200
H278        H  0.44922164  0.32327527  0.53618625     0.14000
In279      In  0.17035419  0.43996626  0.35940548     1.36900
C280        C  0.12182217  0.39583135  0.37009063     0.76900
O281        O  0.17275804  0.45585938  0.42899979    -0.61600
O282        O  0.16634796  0.47471375  0.37344276    -0.52500
C283        C  0.21557597  0.44249664  0.37120939     0.69500
O284        O  0.19335671  0.42241540  0.38306732    -0.47300
C285        C  0.17245565  0.44287873  0.26993487     0.74200
O286        O  0.14222394  0.39856573  0.38851101    -0.59200
O287        O  0.17687183  0.46249505  0.29378745    -0.49300
O288        O  0.12603917  0.41597403  0.34775689    -0.55600
C289        C  0.16790362  0.47301714  0.41586562     0.84400
O290        O  0.21498480  0.46211608  0.35616193    -0.57500
O291        O  0.16733908  0.42228646  0.29184524    -0.60800
In292      In  0.04958540  0.32313330  0.36622053     1.36900
C293        C  0.09553234  0.37070109  0.37215769     0.76900
O294        O  0.06662121  0.32538547  0.29821938    -0.61600
O295        O  0.02718883  0.31664548  0.29993804    -0.52500
C296        C  0.04714088  0.27713493  0.37844466     0.69500
O297        O  0.06654113  0.29951385  0.39147928    -0.47300
C298        C  0.01811707  0.32890341  0.42298960     0.74200
O299        O  0.09133051  0.35021915  0.39336202    -0.59200
O300        O  0.51530596  0.32822406  0.38049108    -0.49300
O301        O  0.07575193  0.36736795  0.35043657    -0.55600
C302        C  0.04647344  0.32061311  0.27601951     0.84400
O303        O  0.02776512  0.27775067  0.36303776    -0.57500
O304        O  0.03580198  0.32502226  0.43631955    -0.60800
C305        C  0.36314111  0.37926358  0.52455490     0.85800
C306        C  0.35585708  0.35704224  0.55927249    -0.54500
C307        C  0.35103069  0.33362418  0.54130412     0.08700
C308        C  0.35427929  0.33470462  0.48872868     0.19700
C309        C  0.38656592  0.38273615  0.49736367    -0.55200
C310        C  0.38286797  0.35943365  0.48087131     0.08800
C311        C  0.34060971  0.36662179  0.48978625    -0.54700
C312        C  0.33577470  0.34365172  0.47036372     0.09400
H313        H  0.35484712  0.35984790  0.59546816     0.13900
H314        H  0.35051102  0.31587468  0.47348126    -0.00400
H315        H  0.40550061  0.40152715  0.49344932     0.14200
H316        H  0.33001591  0.37601672  0.47951428     0.14000
C317        C  0.01870606  0.12947373  0.52624485     0.85800
C318        C  0.00978767  0.14144095  0.56220850    -0.54500
C319        C  0.49383696  0.14956423  0.54568319     0.08700
C320        C  0.48763979  0.14441935  0.49410376     0.19700
C321        C  0.99205329  0.10647931  0.50665190    -0.55200
C322        C  0.47590714  0.11403858  0.48926263     0.08800
C323        C  0.03111024  0.15058486  0.48859047    -0.54700
C324        C  0.01523730  0.15832303  0.47125971     0.09400
H325        H  0.01305939  0.14098999  0.59824141     0.13900
H326        H  0.47455318  0.15079851  0.48051428    -0.00400
H327        H  0.48555183  0.08547576  0.50914956     0.14200
H328        H  0.05109859  0.15853161  0.47584472     0.14000
In329      In  0.44965358  0.16253012  0.63543753     1.36900
C330        C  0.40422298  0.11591482  0.62422170     0.76900
O331        O  0.46326890  0.16246772  0.56413958    -0.61600
O332        O  0.48219196  0.15631613  0.61954908    -0.52500
C333        C  0.45510131  0.20916980  0.62329827     0.69500
O334        O  0.43449893  0.18729959  0.61168524    -0.47300
C335        C  0.45201434  0.16302430  0.72579348     0.74200
O336        O  0.40800941  0.13744020  0.60805090    -0.59200
O337        O  0.47110397  0.16667608  0.70174550    -0.49300
O338        O  0.42386543  0.11813257  0.64467527    -0.55600
C339        C  0.47982239  0.15693429  0.57706743     0.84400
O340        O  0.47395512  0.20755142  0.63831555    -0.57500
O341        O  0.43234560  0.15966219  0.70371110    -0.60800
In342      In  0.33143055  0.04535274  0.62618555     1.36900
C343        C  0.28551473  0.04036803  0.61569780     0.76900
O344        O  0.33280620  0.03235520  0.55465323    -0.61600
O345        O  0.33586130  0.51150794  0.61079349    -0.52500
C346        C  0.37870998  0.09037861  0.62142764     0.69500
O347        O  0.35855694  0.08788482  0.60234115    -0.47300
C348        C  0.32838981  0.04206699  0.71597526     0.74200
O349        O  0.30697681  0.06088457  0.60226295    -0.59200
O350        O  0.32506146  0.52287780  0.69204523    -0.49300
O351        O  0.28717598  0.52130870  0.63021201    -0.55600
C352        C  0.33637055  0.51435447  0.56827331     0.84400
O353        O  0.37495643  0.06947502  0.64032768    -0.57500
O354        O  0.33299171  0.06245186  0.69399605    -0.60800
C355        C  0.36023230  0.47140544  0.52168864     0.85800
C356        C  0.38439291  0.49720341  0.50143104    -0.54500
C357        C  0.37841044  0.01468549  0.48330029     0.08700
C358        C  0.34866688  0.00460841  0.48658918     0.19700
C359        C  0.34859615  0.48153398  0.55574396    -0.55200
C360        C  0.34267659  0.49897479  0.53795133     0.08800
C361        C  0.34030003  0.45971467  0.48258881    -0.54700
C362        C  0.33393745  0.47655384  0.46429306     0.09400
H363        H  0.40472895  0.50240242  0.50335456     0.13900
H364        H  0.34368902  0.01865114  0.47186519    -0.00400
H365        H  0.34655061  0.47632861  0.59162893     0.14200
H366        H  0.33169779  0.43935399  0.47020176     0.14000
In367      In  0.28133560  0.43811729  0.35971950     1.36900
C368        C  0.23971088  0.44199567  0.37110898     0.76900
O369        O  0.29231520  0.44384686  0.43249663    -0.61600
O370        O  0.31857160  0.47559255  0.38773958    -0.52500
C371        C  0.28361071  0.39450361  0.36515346     0.69500
O372        O  0.26337299  0.39450789  0.37689171    -0.47300
C373        C  0.28387185  0.44177215  0.26967493     0.74200
O374        O  0.23941215  0.42121946  0.38181386    -0.59200
O375        O  0.30281494  0.45920572  0.29424094    -0.49300
O376        O  0.26179790  0.46144559  0.35704147    -0.55600
C377        C  0.31403873  0.46606253  0.42760737     0.84400
O378        O  0.30291827  0.41691632  0.35147327    -0.57500
O379        O  0.26423303  0.42325976  0.29122142    -0.60800
In380      In  0.28354788  0.32473047  0.36329749     1.36900
C381        C  0.23947584  0.27660709  0.37443593     0.76900
O382        O  0.26682210  0.31971487  0.29403163    -0.61600
O383        O  0.30643340  0.32907838  0.29825247    -0.52500
C384        C  0.28422189  0.37006879  0.36598896     0.69500
O385        O  0.26474944  0.34775771  0.37949695    -0.47300
C386        C  0.31589615  0.33241295  0.43307661     0.74200
O387        O  0.24145639  0.29808720  0.38534686    -0.59200
O388        O  0.31896747  0.32469351  0.39504508    -0.49300
O389        O  0.26081256  0.27933607  0.36105480    -0.55600
C390        C  0.28712779  0.32434896  0.27301633     0.84400
O391        O  0.30381572  0.36948392  0.35211884    -0.57500
O392        O  0.29574693  0.33385741  0.43520362    -0.60800
In393      In  0.21780593  0.15514635  0.62936523     1.36900
C394        C  0.26283577  0.20350105  0.61779212     0.76900
O395        O  0.20264275  0.15434392  0.55770681    -0.61600
O396        O  0.17793363  0.14905319  0.61299276    -0.52500
C397        C  0.21526028  0.10896130  0.61922482     0.69500
O398        O  0.23509624  0.13141367  0.60714746    -0.47300
C399        C  0.21599755  0.15511674  0.72083266     0.74200
O400        O  0.25966279  0.18211115  0.60288535    -0.59200
O401        O  0.20102584  0.15907752  0.69636435    -0.49300
O402        O  0.24236369  0.20058647  0.63576882    -0.55600
C403        C  0.18048368  0.14975661  0.57043041     0.84400
O404        O  0.19603297  0.10980857  0.63410004    -0.57500
O405        O  0.23150581  0.15123987  0.69867926    -0.60800
In406      In  0.21857948  0.04118407  0.62994503     1.36900
C407        C  0.18783737  0.51075962  0.56336785     0.76900
O408        O  0.19584037  0.06168818  0.63142125    -0.61600
O409        O  0.23618834  0.08449152  0.61070361    -0.52500
C410        C  0.21582871  0.03710736  0.71946271     0.69500
O411        O  0.19884489  0.51803072  0.69466698    -0.47300
C412        C  0.26105644  0.03979613  0.61821999     0.74200
O413        O  0.17962545  0.50626646  0.60386507    -0.59200
O414        O  0.26013990  0.05979857  0.60677552    -0.49300
O415        O  0.21212981  0.02841104  0.55832437    -0.55600
C416        C  0.21552712  0.08430066  0.61947695     0.84400
O417        O  0.23384839  0.05741503  0.69841888    -0.57500
O418        O  0.23995768  0.52013314  0.63492065    -0.60800
C419        C  0.11198611  0.12547018  0.51706047     0.85800
C420        C  0.11250907  0.10183604  0.49858006    -0.54500
C421        C  0.13665643  0.10810405  0.48336660     0.08700
C422        C  0.15867510  0.13821016  0.48721560     0.19700
C423        C  0.13406722  0.13716719  0.55393766    -0.55200
C424        C  0.15852575  0.14376751  0.53854631     0.08800
C425        C  0.12308065  0.14634415  0.47934890    -0.54700
C426        C  0.14707553  0.15302277  0.46326192     0.09400
H427        H  0.09628350  0.08115413  0.50330805     0.13900
H428        H  0.17830741  0.14345714  0.47411923    -0.00400
H429        H  0.13034666  0.13789088  0.58974053     0.14200
H430        H  0.11251344  0.15519195  0.46599463     0.14000
In431      In  0.05287815  0.21113080  0.36519089     1.36900
C432        C  0.04824951  0.25297224  0.37735002     0.76900
O433        O  0.06716215  0.22832319  0.29636504    -0.61600
O434        O  0.03193328  0.18909637  0.29985883    -0.52500
C435        C  0.09600929  0.20817466  0.36876399     0.69500
O436        O  0.09629390  0.22865346  0.38136495    -0.47300
C437        C  0.02589496  0.17832948  0.43420667     0.74200
O438        O  0.06905230  0.25352971  0.38758765    -0.59200
O439        O  0.51548470  0.17435643  0.39514650    -0.49300
O440        O  0.02931451  0.23062536  0.36287457    -0.55600
C441        C  0.04901954  0.20825961  0.27501974     0.84400
O442        O  0.07359862  0.18902309  0.35508307    -0.57500
O443        O  0.04866373  0.19948895  0.43778940    -0.60800
In444      In  0.16523206  0.20769213  0.36156030     1.36900
C445        C  0.21359854  0.25111629  0.37350299     0.76900
O446        O  0.16510556  0.19694053  0.43440117    -0.61600
O447        O  0.15775883  0.16755503  0.38556226    -0.52500
C448        C  0.12012687  0.20716685  0.36842062     0.69500
O449        O  0.14233259  0.22612661  0.38283599    -0.47300
C450        C  0.16678450  0.20576229  0.27127303     0.74200
O451        O  0.19263656  0.24988902  0.38419446    -0.59200
O452        O  0.16476346  0.18716727  0.29587592    -0.49300
O453        O  0.21011911  0.22948535  0.35878023    -0.55600
C454        C  0.15876852  0.17332212  0.42701229     0.84400
O455        O  0.12059648  0.18781639  0.35219820    -0.57500
O456        O  0.16840582  0.22481502  0.29287711    -0.60800
C457        C  0.03931226  0.10412809  0.50747414    -0.27000
C458        C  0.03814744  0.12121189  0.53890457    -0.15100
C459        C  0.06048990  0.13632415  0.56822910     0.35500
C460        C  0.08258337  0.13424490  0.56446823    -0.26500
C461        C  0.08440108  0.11881023  0.53036379    -0.15700
C462        C  0.06190986  0.10354836  0.50138228     0.36600
N463        N  0.06178399  0.08947889  0.46183951    -0.90000
H464        H  0.02384184  0.09353015  0.48221600     0.17700
H465        H  0.09956877  0.14738408  0.58566690     0.17700
N466        N  0.06267906  0.15545342  0.60025200    -0.89000
H467        H  0.06064885  0.07190081  0.47109614     0.35100
H468        H  0.07818579  0.10196841  0.44121214     0.40200
H469        H  0.04844856  0.14538759  0.62563838     0.39800
H470        H  0.06050997  0.16977256  0.58361190     0.34700
C471        C  0.44528645  0.07283856  0.44511992    -0.27000
C472        C  0.44850256  0.09305980  0.47426976    -0.15100
C473        C  0.42612635  0.08902879  0.49748870     0.35500
C474        C  0.40190619  0.06389092  0.49569710    -0.26500
C475        C  0.39989052  0.04261634  0.47139879    -0.15700
C476        C  0.42119801  0.04767229  0.44363292     0.36600
N477        N  0.41886366  0.02675539  0.41590244    -0.90000
H478        H  0.46226244  0.07577238  0.42656812     0.17700
H479        H  0.38561314  0.06029460  0.51710762     0.17700
N480        N  0.42868233  0.10922929  0.52710627    -0.89000
H481        H  0.43368119  0.02347303  0.42581191     0.35100
H482        H  0.42251034  0.53356007  0.38223959     0.40200
H483        H  0.42467400  0.10124228  0.55993528     0.39800
H484        H  0.41424459  0.11323255  0.51805627     0.34700
C485        C  0.38893909  0.45269887  0.54216758    -0.27000
C486        C  0.36409908  0.45002159  0.54166798    -0.15100
C487        C  0.34149774  0.42518183  0.55585756     0.35500
C488        C  0.34293953  0.40254012  0.55849546    -0.26500
C489        C  0.36636321  0.40422957  0.54598819    -0.15700
C490        C  0.39034836  0.42998068  0.54655526     0.36600
N491        N  0.41575456  0.43392523  0.55644700    -0.90000
H492        H  0.40731325  0.47207445  0.53898636     0.17700
H493        H  0.32473619  0.38307180  0.56378111     0.17700
N494        N  0.31639711  0.42228399  0.56300668    -0.89000
H495        H  0.42783830  0.44199836  0.52771627     0.35100
H496        H  0.41375726  0.41589387  0.56581667     0.40200
H497        H  0.31009761  0.41496629  0.59597336     0.39800
H498        H  0.30252634  0.40791696  0.54027244     0.34700
C499        C  0.43479999  0.34540813  0.43876161    -0.27000
C500        C  0.45401234  0.35748909  0.47382732    -0.15100
C501        C  0.44912970  0.36993649  0.50993933     0.35500
C502        C  0.42600599  0.36996660  0.51061587    -0.26500
C503        C  0.40682688  0.35798630  0.47617765    -0.15700
C504        C  0.41115063  0.34551672  0.43972067     0.36600
N505        N  0.39146664  0.33270084  0.40447193    -0.90000
H506        H  0.43745813  0.33485223  0.41175023     0.17700
H507        H  0.42271639  0.37893137  0.53965796     0.17700
N508        N  0.46696628  0.38130754  0.54797118    -0.89000
H509        H  0.39758367  0.32435625  0.38026076     0.35100
H510        H  0.39017451  0.34757392  0.38777279     0.40200
H511        H  0.45653497  0.37127693  0.57749195     0.39800
H512        H  0.47321636  0.40148898  0.55070961     0.34700
C513        C  0.07007556  0.39591575  0.49088834    -0.27000
C514        C  0.04993342  0.39520747  0.51582343    -0.15100
C515        C  0.05616904  0.41738869  0.54282940     0.35500
C516        C  0.08179321  0.44082800  0.54098745    -0.26500
C517        C  0.10130695  0.44271158  0.51196451    -0.15700
C518        C  0.09544204  0.41937157  0.48815832     0.36600
N519        N  0.11367610  0.41931308  0.45740461    -0.90000
H520        H  0.06549353  0.37895268  0.46994516     0.17700
H521        H  0.08593234  0.45824866  0.56012269     0.17700
N522        N  0.03627070  0.41645061  0.57100513    -0.89000
H523        H  0.13052330  0.42333433  0.47536521     0.35100
H524        H  0.11851996  0.43389399  0.43255865     0.40200
H525        H  0.04328315  0.42008424  0.60448545     0.39800
H526        H  0.03397075  0.43202374  0.56094264     0.34700
C527        C  0.13427625  0.04513292  0.50984341    -0.27000
C528        C  0.14252787  0.03957086  0.46902853    -0.15100
C529        C  0.14994190  0.05790198  0.43234213     0.35500
C530        C  0.14851582  0.08075267  0.43749963    -0.26500
C531        C  0.14145811  0.08633845  0.47935132    -0.15700
C532        C  0.13562107  0.06880275  0.51643045     0.36600
N533        N  0.13259703  0.07510229  0.56207668    -0.90000
H534        H  0.12914264  0.03192350  0.53903785     0.17700
H535        H  0.15303474  0.09418592  0.40890192     0.17700
N536        N  0.15917442  0.05396190  0.39038206    -0.89000
H537        H  0.11568504  0.07583089  0.56512464     0.35100
H538        H  0.14947760  0.09364934  0.57088757     0.40200
H539        H  0.17832147  0.07075213  0.38444469     0.39800
H540        H  0.14671975  0.05300543  0.36436676     0.34700
C541        C  0.41546265  0.04187421  0.04804578    -0.27000
C542        C  0.39656366  0.03942999  0.01664690    -0.15100
C543        C  0.40119648  0.06267074  0.99416869     0.35500
C544        C  0.42561925  0.08725807  0.99971105    -0.26500
C545        C  0.44575373  0.08877592  0.02655972    -0.15700
C546        C  0.43998173  0.06634430  0.05318525     0.36600
N547        N  0.45980006  0.06790326  0.08297388    -0.90000
H548        H  0.41199903  0.02425252  0.06609099     0.17700
H549        H  0.42984904  0.10425681  0.97881696     0.17700
N550        N  0.38254145  0.06082614  0.96158880    -0.89000
H551        H  0.46356230  0.05340462  0.07290621     0.35100
H552        H  0.45186918  0.06293810  0.11574397     0.40200
H553        H  0.39204510  0.06624732  0.93009389     0.39800
H554        H  0.37773024  0.07475396  0.97018141     0.34700
C555        C  0.33904714  0.39844251  0.93599909    -0.27000
C556        C  0.36287046  0.40070925  0.94841529    -0.15100
C557        C  0.38662566  0.42657460  0.94597155     0.35500
C558        C  0.38494025  0.44921795  0.94742296    -0.26500
C559        C  0.36002207  0.44639138  0.94740566    -0.15700
C560        C  0.33724854  0.42097597  0.93564383     0.36600
N561        N  0.31178191  0.41761070  0.92870173    -0.90000
H562        H  0.32104280  0.37866497  0.93217215     0.17700
H563        H  0.40323645  0.46877268  0.94873174     0.17700
N564        N  0.41210051  0.43063821  0.93696749    -0.89000
H565        H  0.29672327  0.39727456  0.92548290     0.35100
H566        H  0.31248647  0.42649955  0.89753690     0.40200
H567        H  0.41027452  0.41263692  0.92851997     0.39800
H568        H  0.42417205  0.43902371  0.96572649     0.34700
C569        C  0.06488935  0.10309296  0.99735090    -0.27000
C570        C  0.08443322  0.11854976  0.96449102    -0.15100
C571        C  0.07890220  0.13256434  0.93182995     0.35500
C572        C  0.05464982  0.13110383  0.93379884    -0.26500
C573        C  0.03627067  0.11743468  0.96930980    -0.15700
C574        C  0.04170779  0.10274708  0.00092785     0.36600
N575        N  0.02580848  0.08933859  0.04032895    -0.90000
H576        H  0.06868602  0.09342403  0.02487143     0.17700
H577        H  0.05194263  0.14348825  0.91033109     0.17700
N578        N  0.09859447  0.15005612  0.89906276    -0.89000
H579        H  0.00773729  0.07221235  0.03076334     0.35100
H580        H  0.02312540  0.10237826  0.05962255     0.40200
H581        H  0.11396205  0.16655355  0.91664164     0.39800
H582        H  0.09088493  0.15774141  0.87621275     0.34700
C583        C  0.43416595  0.34476886  0.05999299    -0.27000
C584        C  0.45235238  0.35527103  0.02347182    -0.15100
C585        C  0.44634148  0.36598924  0.98548897     0.35500
C586        C  0.42291971  0.36547578  0.98412199    -0.26500
C587        C  0.40466950  0.35489127  0.01983102    -0.15700
C588        C  0.41025130  0.34442071  0.05842879     0.36600
N589        N  0.39197301  0.33383415  0.09586051    -0.90000
H590        H  0.43785604  0.33582373  0.08881690     0.17700
H591        H  0.41874293  0.37313113  0.95385249     0.17700
N592        N  0.46340838  0.37622518  0.94651229    -0.89000
H593        H  0.39948704  0.32783910  0.12217719     0.35100
H594        H  0.37452556  0.31644925  0.08471145     0.40200
H595        H  0.46920763  0.39615615  0.94124590     0.39800
H596        H  0.45251462  0.36504371  0.91812115     0.34700
C597        C  0.06876311  0.39693964  0.00572843    -0.27000
C598        C  0.04783065  0.39428248  0.97976405    -0.15100
C599        C  0.05271284  0.41536912  0.95037966     0.35500
C600        C  0.07777727  0.43964128  0.95056951    -0.26500
C601        C  0.09809934  0.44318240  0.97974936    -0.15700
C602        C  0.09364451  0.42127159  0.00640869     0.36600
N603        N  0.11336483  0.42436587  0.03774963    -0.90000
H604        H  0.06520468  0.38095000  0.02872115     0.17700
H605        H  0.08096701  0.45619900  0.92947248     0.17700
N606        N  0.03201726  0.41238827  0.92124021    -0.89000
H607        H  0.10535086  0.42117417  0.07032312     0.35100
H608        H  0.11719474  0.40949523  0.03100872     0.40200
H609        H  0.03880403  0.41536578  0.88772405     0.39800
H610        H  0.02873775  0.42751105  0.92907734     0.34700
C611        C  0.13567075  0.07338864  0.97831541    -0.27000
C612        C  0.14316669  0.08937277  0.01716208    -0.15100
C613        C  0.15099865  0.08163409  0.05647186     0.35500
C614        C  0.15117638  0.05797316  0.05603585    -0.26500
C615        C  0.14275347  0.04142556  0.01719999    -0.15700
C616        C  0.13437916  0.04933961  0.97839570     0.36600
N617        N  0.12505206  0.03317386  0.93813672    -0.90000
H618        H  0.12953298  0.07907378  0.94786598     0.17700
H619        H  0.15795974  0.05282391  0.08608135     0.17700
N620        N  0.15844502  0.09719661  0.09719106    -0.89000
H621        H  0.10572587  0.02819072  0.93122461     0.35100
H622        H  0.13722143  0.04470592  0.91097886     0.40200
H623        H  0.14240632  0.09836961  0.10732726     0.39800
H624        H  0.17442862  0.11663777  0.08963756     0.34700
In625      In  0.33731705  0.77064389  0.86426789     1.36900
C626        C  0.28835427  0.72681366  0.87626755     0.76900
O627        O  0.34199480  0.78707702  0.93655370    -0.61600
O628        O  0.34099100  0.80931213  0.88107549    -0.52500
C629        C  0.38320434  0.77340597  0.87222631     0.69500
O630        O  0.36119100  0.75304591  0.88438618    -0.47300
C631        C  0.33719740  0.77275587  0.77274509     0.74200
O632        O  0.30906418  0.72845886  0.89068640    -0.59200
O633        O  0.33672820  0.78992482  0.79709625    -0.49300
O634        O  0.29241882  0.74818800  0.85881882    -0.55600
C635        C  0.34349161  0.80814655  0.92347092     0.84400
O636        O  0.38197371  0.79281766  0.85811959    -0.57500
O637        O  0.33759531  0.75477863  0.79503324    -0.60800
In638      In  0.45220961  0.77343019  0.86504003     1.36900
C639        C  0.47905142  0.80638909  0.93234035     0.76900
O640        O  0.43019726  0.79449599  0.86107601    -0.61600
O641        O  0.40858603  0.75336025  0.88048371    -0.52500
C642        C  0.45578522  0.77679785  0.77511476     0.69500
O643        O  0.47478769  0.79389509  0.79993970    -0.47300
C644        C  0.45613971  0.73165756  0.87784162     0.74200
O645        O  0.98659375  0.81307408  0.89172067    -0.59200
O646        O  0.43606803  0.73188596  0.88941217    -0.49300
O647        O  0.46007970  0.78244475  0.93808892    -0.55600
C648        C  0.40801979  0.77390713  0.87197504     0.84400
O649        O  0.43580209  0.75856668  0.79632300    -0.57500
O650        O  0.47518118  0.75348301  0.86172580    -0.60800
C651        C  0.14551947  0.51744472  0.01250782     0.85800
C652        C  0.11932595  0.99148413  0.99868359    -0.54500
C653        C  0.12188556  0.97068201  0.98746533     0.08700
C654        C  0.15076292  0.97782927  0.99071562     0.19700
C655        C  0.15627814  0.50841920  0.05186842    -0.55200
C656        C  0.15902537  0.98760220  0.04019585     0.08800
C657        C  0.16477120  0.52370118  0.97399951    -0.54700
C658        C  0.16713043  0.00330088  0.96173753     0.09400
H659        H  0.10018303  0.98947894  0.99959008     0.13900
H660        H  0.15311553  0.96121525  0.98075968    -0.00400
H661        H  0.16045512  0.51668725  0.08584984     0.14200
H662        H  0.17575629  0.54316841  0.95691953     0.14000
C663        C  0.47503277  0.85067010  0.01854192     0.85800
C664        C  0.48393036  0.83977863  0.05803068    -0.54500
C665        C  0.00358984  0.83554298  0.04568107     0.08700
C666        C  0.01203492  0.84217944  0.99528246     0.19700
C667        C  0.50124805  0.87598471  0.00291702    -0.55200
C668        C  0.02039560  0.87160546  0.98989791     0.08800
C669        C  0.46700595  0.83018412  0.98096330    -0.54700
C670        C  0.48597509  0.82588531  0.96832389     0.09400
H671        H  0.47662799  0.83695759  0.09255728     0.13900
H672        H  0.02759864  0.83854508  0.98479697    -0.00400
H673        H  0.50470730  0.89595139  0.00404157     0.14200
H674        H  0.44744311  0.81982679  0.96488826     0.14000
In675      In  0.16995074  0.94076769  0.13098860     1.36900
C676        C  0.12160675  0.89583362  0.12580631     0.76900
O677        O  0.16804696  0.92303308  0.19841915    -0.61600
O678        O  0.17640997  0.96283770  0.19673648    -0.52500
C679        C  0.21528904  0.94336258  0.11870893     0.69500
O680        O  0.19293755  0.92329419  0.10741638    -0.47300
C681        C  0.16552679  0.97293876  0.07288092     0.74200
O682        O  0.14129914  0.89888260  0.10453869    -0.59200
O683        O  0.16660124  0.97629211  0.11524568    -0.49300
O684        O  0.12630874  0.91615167  0.14765301    -0.55600
C685        C  0.17254428  0.94318491  0.22046961     0.84400
O686        O  0.21480967  0.96305282  0.13311361    -0.57500
O687        O  0.16849755  0.95445611  0.06052245    -0.60800
In688      In  0.04969531  0.82283151  0.13580251     1.36900
C689        C  0.09555065  0.87036709  0.12684877     0.76900
O690        O  0.03641376  0.82564039  0.06533293    -0.61600
O691        O  0.01510524  0.82752128  0.12045173    -0.52500
C692        C  0.04707227  0.77680800  0.12295789     0.69500
O693        O  0.06716999  0.79952912  0.11330104    -0.47300
C694        C  0.04649561  0.82049724  0.22622083     0.74200
O695        O  0.09104233  0.84952445  0.10710444    -0.59200
O696        O  0.02743013  0.81690471  0.20172816    -0.49300
O697        O  0.07626721  0.86725083  0.14949519    -0.55600
C698        C  0.01832936  0.82891259  0.07804646     0.84400
O699        O  0.02725445  0.77718080  0.13607880    -0.57500
O700        O  0.06647335  0.82472747  0.20454768    -0.60800
In701      In  0.21694304  0.65347095  0.86260418     1.36900
C702        C  0.26209391  0.70133835  0.87577541     0.76900
O703        O  0.23101297  0.65040860  0.79360806    -0.61600
O704        O  0.20097414  0.65887372  0.79516627    -0.52500
C705        C  0.21401555  0.60710140  0.87177738     0.69500
O706        O  0.23393839  0.62927943  0.88448084    -0.47300
C707        C  0.17975370  0.64774346  0.92134121     0.74200
O708        O  0.25861525  0.67966226  0.89050210    -0.59200
O709        O  0.17643578  0.64555697  0.87886284    -0.49300
O710        O  0.24183740  0.69889913  0.85719011    -0.55600
C711        C  0.21585343  0.65485033  0.77106715     0.84400
O712        O  0.19486926  0.60829171  0.85702943    -0.57500
O713        O  0.20249468  0.65376148  0.93401286    -0.60800
In714      In  0.21679085  0.53935562  0.85868255     1.36900
C715        C  0.18512692  0.00889063  0.92436496     0.76900
O716        O  0.23732567  0.01743870  0.85521933    -0.61600
O717        O  0.25885350  0.55808901  0.87862124    -0.52500
C718        C  0.21531962  0.53674006  0.76903236     0.69500
O719        O  0.19769329  0.01743263  0.79284249    -0.47300
C720        C  0.21407117  0.58239163  0.87059379     0.74200
O721        O  0.17721569  0.00506575  0.88360119    -0.59200
O722        O  0.23408985  0.58184833  0.88201432    -0.49300
O723        O  0.20965464  0.52547588  0.93008999    -0.55600
C724        C  0.25918667  0.53767112  0.86842012     0.84400
O725        O  0.23306096  0.55662605  0.79109416    -0.57500
O726        O  0.19489219  0.56055382  0.85507275    -0.60800
C727        C  0.11268656  0.62640693  0.97612189     0.85800
C728        C  0.13331443  0.63465323  0.93800840    -0.54500
C729        C  0.15826862  0.64252452  0.95329272     0.08700
C730        C  0.16001994  0.64088415  0.00588182     0.19700
C731        C  0.11366260  0.60436961  0.00182515    -0.55200
C732        C  0.13825501  0.61128735  0.01642035     0.08800
C733        C  0.12499415  0.65000473  0.00833360    -0.54700
C734        C  0.14916577  0.65746320  0.02509160     0.09400
H735        H  0.12838238  0.63270905  0.90212795     0.13900
H736        H  0.17998198  0.64707356  0.01910483    -0.00400
H737        H  0.09716857  0.58344321  0.00077246     0.14200
H738        H  0.11439053  0.65915753  0.01943915     0.14000
C739        C  0.36040446  0.87594031  0.97020528     0.85800
C740        C  0.38419974  0.87956207  0.99725879    -0.54500
C741        C  0.38068293  0.85629490  0.01444573     0.08700
C742        C  0.35218302  0.83147178  0.00657442     0.19700
C743        C  0.35311077  0.85380040  0.93577274    -0.55200
C744        C  0.34874838  0.83047853  0.95395914     0.08800
C745        C  0.33815089  0.86309361  0.00519418    -0.54700
C746        C  0.33370373  0.84024989  0.02484098     0.09400
H747        H  0.40315887  0.89837833  0.00067840     0.13900
H748        H  0.34850196  0.81258807  0.02182318    -0.00400
H749        H  0.35195103  0.85667199  0.89952827     0.14200
H750        H  0.32754463  0.87234016  0.01571615     0.14000
In751      In  0.05223106  0.71031340  0.13475935     1.36900
C752        C  0.04789036  0.75246456  0.12280986     0.76900
O753        O  0.04595835  0.69721656  0.06279901    -0.61600
O754        O  0.51460321  0.67236531  0.10865784    -0.52500
C755        C  0.09581023  0.70821599  0.12877365     0.69500
O756        O  0.09482997  0.72758662  0.11330402    -0.47300
C757        C  0.04895956  0.70802594  0.22508380     0.74200
O758        O  0.06907070  0.75336665  0.11521339    -0.59200
O759        O  0.03173740  0.68873048  0.20079991    -0.49300
O760        O  0.02830181  0.72952711  0.13363211    -0.55600
C761        C  0.02379821  0.67561241  0.06894659     0.84400
O762        O  0.07443530  0.68972185  0.14671548    -0.57500
O763        O  0.06710981  0.72779683  0.20315133    -0.60800
In764      In  0.16578430  0.70924246  0.13119135     1.36900
C765        C  0.21403530  0.75275657  0.12079800     0.76900
O766        O  0.16951732  0.72576393  0.19999658    -0.61600
O767        O  0.16379660  0.68715987  0.19655466    -0.52500
C768        C  0.12023010  0.70776914  0.12751567     0.69500
O769        O  0.14207264  0.72729934  0.11281225    -0.47300
C770        C  0.15965569  0.67737010  0.06207363     0.74200
O771        O  0.19312536  0.75197454  0.11099209    -0.59200
O772        O  0.16505494  0.67316642  0.10158903    -0.49300
O773        O  0.21053438  0.73069261  0.13335506    -0.55600
C774        C  0.16684153  0.70600125  0.22136522     0.84400
O775        O  0.12131608  0.68834927  0.14244296    -0.57500
O776        O  0.15907853  0.69818476  0.05832517    -0.60800
In777      In  0.28107010  0.93859475  0.12982109     1.36900
C778        C  0.23942621  0.94273680  0.11885641     0.76900
O779        O  0.26405442  0.92368670  0.19822809    -0.61600
O780        O  0.30289623  0.95936304  0.19530624    -0.52500
C781        C  0.28430119  0.89551160  0.12587859     0.69500
O782        O  0.26347123  0.89488917  0.11546668    -0.47300
C783        C  0.31174036  0.96521346  0.05917466     0.74200
O784        O  0.23892762  0.92185564  0.10860284    -0.59200
O785        O  0.31758807  0.97549352  0.09843239    -0.49300
O786        O  0.26171491  0.96215891  0.13242982    -0.55600
C787        C  0.28385381  0.94193374  0.21981847     0.84400
O788        O  0.30376664  0.91831494  0.13757031    -0.56300
O789        O  0.28977483  0.94304912  0.05637098    -0.60800
In790      In  0.28414406  0.82559486  0.13246355     1.36900
C791        C  0.23991002  0.77808604  0.12123095     0.76900
O792        O  0.29253419  0.82678120  0.05887370    -0.61600
O793        O  0.32112960  0.82828844  0.10374929    -0.52500
C794        C  0.28522141  0.87123227  0.12601971     0.69500
O795        O  0.26534494  0.84861875  0.11526899    -0.47300
C796        C  0.28721430  0.82443322  0.22302694     0.74200
O797        O  0.24203313  0.79980018  0.11097641    -0.59200
O798        O  0.30655954  0.82917553  0.19835702    -0.49300
O799        O  0.26108134  0.78033254  0.13501447    -0.55600
C800        C  0.31484637  0.82964682  0.06319698     0.84400
O801        O  0.30529706  0.87095374  0.13838685    -0.57500
O802        O  0.26703466  0.81994297  0.20137240    -0.60800
C803        C  0.35644260  0.96835719  0.96518985     0.85800
C804        C  0.34515202  0.97846824  0.92970332    -0.54500
C805        C  0.33937671  0.99619353  0.94594083     0.08700
C806        C  0.34542863  0.50236704  0.99725238     0.19700
C807        C  0.38078457  0.99426539  0.98499850    -0.55200
C808        C  0.37507558  0.51217509  0.00139462     0.08800
C809        C  0.33649823  0.95735037  0.00415715    -0.54700
C810        C  0.33055586  0.97465325  0.02106462     0.09400
H811        H  0.34351544  0.97331837  0.89396790     0.13900
H812        H  0.34066083  0.51669220  0.01079207    -0.00400
H813        H  0.40093849  0.99886998  0.98524716     0.14200
H814        H  0.32791802  0.93722481  0.01804642     0.14000
C815        C  0.01673896  0.62542060  0.98137338     0.85800
C816        C  0.98993398  0.60240538  0.99926209    -0.54500
C817        C  0.47376497  0.60989532  0.01599525     0.08700
C818        C  0.48536343  0.64026215  0.01056008     0.19700
C819        C  0.00856704  0.63797433  0.94421378    -0.55200
C820        C  0.49194944  0.64550452  0.95915905     0.08800
C821        C  0.02877935  0.64645103  0.01882281    -0.54700
C822        C  0.01283868  0.65437041  0.03430881     0.09400
H823        H  0.48274757  0.58147641  0.99370391     0.13900
H824        H  0.47205229  0.64650642  0.02297048    -0.00400
H825        H  0.01323525  0.63862324  0.90851057     0.14200
H826        H  0.04878797  0.65467995  0.03204264     0.14000
In827      In  0.44916717  0.65971541  0.86576548     1.36900
C828        C  0.45573237  0.70688734  0.87883973     0.76900
O829        O  0.45896171  0.65490313  0.93793256    -0.61600
O830        O  0.98299265  0.65555561  0.88471081    -0.52500
C831        C  0.40303382  0.61303784  0.86916450     0.69500
O832        O  0.40609671  0.63427628  0.88474946    -0.47300
C833        C  0.45192090  0.66228933  0.77556555     0.74200
O834        O  0.43568357  0.68520678  0.89283335    -0.59200
O835        O  0.47036299  0.66396125  0.79954584    -0.49300
O836        O  0.47386410  0.70490306  0.86189301    -0.55600
C837        C  0.47794158  0.65272439  0.92666748     0.84400
O838        O  0.42386383  0.61534031  0.85421056    -0.57500
O839        O  0.43266797  0.65952740  0.79767360    -0.60800
In840      In  0.32952383  0.54341665  0.85567434     1.36900
C841        C  0.37701531  0.58795673  0.86620688     0.76900
O842        O  0.32951634  0.52941017  0.92710095    -0.61600
O843        O  0.33354696  0.00912057  0.87185699    -0.52500
C844        C  0.28378977  0.53847595  0.86822450     0.69500
O845        O  0.30569195  0.55959160  0.87794909    -0.47300
C846        C  0.32778513  0.54156017  0.76559852     0.74200
O847        O  0.35619314  0.58534777  0.88188455    -0.59200
O848        O  0.32432094  0.52208658  0.78929962    -0.49300
O849        O  0.37364799  0.56756397  0.84642843    -0.55600
C850        C  0.33336030  0.01158328  0.91434589     0.84400
O851        O  0.28504605  0.01904864  0.85498336    -0.57500
O852        O  0.33146912  0.56132441  0.78789380    -0.60800
In853      In  0.45237899  0.77565607  0.63535447     1.36900
C854        C  0.48055721  0.80927249  0.56963178     0.76900
O855        O  0.47517293  0.75581179  0.63833129    -0.61600
O856        O  0.43539357  0.73409201  0.61230548    -0.52500
C857        C  0.45583016  0.77727307  0.72535177     0.69500
O858        O  0.47480160  0.79492022  0.70113259    -0.47300
C859        C  0.40839873  0.77608657  0.62537108     0.74200
O860        O  0.98497506  0.81645568  0.61070192    -0.59200
O861        O  0.40931381  0.75597493  0.61558198    -0.49300
O862        O  0.46417328  0.78462247  0.56307026    -0.55600
C863        C  0.45564447  0.73390590  0.62347484     0.84400
O864        O  0.43595044  0.75938433  0.70351316    -0.57500
O865        O  0.43015616  0.79629170  0.63869573    -0.60800
In866      In  0.33788638  0.77265847  0.63104177     1.36900
C867        C  0.28898335  0.72910008  0.61803320     0.76900
O868        O  0.33781988  0.75561101  0.69971778    -0.61600
O869        O  0.33711651  0.79090671  0.69865215    -0.52500
C870        C  0.38362331  0.77548666  0.62423723     0.69500
O871        O  0.36177942  0.75534612  0.61091037    -0.47300
C872        C  0.34510213  0.81092616  0.57185566     0.74200
O873        O  0.30967383  0.73116986  0.60292985    -0.59200
O874        O  0.34257248  0.81189593  0.61419110    -0.49300
O875        O  0.29299599  0.75005683  0.63669642    -0.55600
C876        C  0.33736228  0.77323300  0.72249804     0.84400
O877        O  0.38226270  0.79457851  0.63898177    -0.57500
O878        O  0.34291587  0.78962460  0.55882722    -0.60800
C879        C  0.14683048  0.51650044  0.47300043     0.85800
C880        C  0.15768424  0.50753827  0.43453304    -0.54500
C881        C  0.16159002  0.98762720  0.44784534     0.08700
C882        C  0.15398657  0.97828404  0.49776853     0.19700
C883        C  0.12131968  0.99021146  0.48817895    -0.55200
C884        C  0.12475902  0.97005603  0.50082426     0.08800
C885        C  0.16678162  0.52391627  0.51127622    -0.54700
C886        C  0.16991874  0.00422133  0.52523849     0.09400
H887        H  0.16090832  0.51472879  0.39984257     0.13900
H888        H  0.15748300  0.96261076  0.50922019    -0.00400
H889        H  0.10189194  0.98759920  0.48749640     0.14200
H890        H  0.17746734  0.54362413  0.52730773     0.14000
C891        C  0.47635638  0.85248081  0.48006218     0.85800
C892        C  0.50316051  0.87779575  0.49371186    -0.54500
C893        C  0.02205103  0.87300951  0.50742598     0.08700
C894        C  0.01284648  0.84328773  0.50459392     0.19700
C895        C  0.48417754  0.84028037  0.44175638    -0.55200
C896        C  0.00360118  0.83573223  0.45476248     0.08800
C897        C  0.46851972  0.83291691  0.51953398    -0.54700
C898        C  0.48728706  0.82830320  0.53269903     0.09400
H899        H  0.50718025  0.89794409  0.49064286     0.13900
H900        H  0.02818277  0.83932364  0.51563894    -0.00400
H901        H  0.47662325  0.83717019  0.40724782     0.14200
H902        H  0.44922162  0.82327525  0.53618618     0.14000
In903      In  0.17035427  0.93996631  0.35940549     1.36900
C904        C  0.12182220  0.89583136  0.37009059     0.76900
O905        O  0.17275802  0.95585940  0.42899978    -0.61600
O906        O  0.16634807  0.97471384  0.37344271    -0.52500
C907        C  0.21557604  0.94249672  0.37120956     0.69500
O908        O  0.19335678  0.92241551  0.38306757    -0.47300
C909        C  0.17245571  0.94287880  0.26993485     0.74200
O910        O  0.14222396  0.89856570  0.38851094    -0.59200
O911        O  0.17687193  0.96249512  0.29378745    -0.49300
O912        O  0.12603926  0.91597409  0.34775693    -0.55600
C913        C  0.16790366  0.97301721  0.41586558     0.84400
O914        O  0.21498488  0.96211613  0.35616191    -0.57500
O915        O  0.16733918  0.92228654  0.29184522    -0.60800
In916      In  0.04958536  0.82313330  0.36622044     1.36900
C917        C  0.09553233  0.87070113  0.37215760     0.76900
O918        O  0.06662126  0.82538555  0.29821931    -0.61600
O919        O  0.02718882  0.81664539  0.29993799    -0.52500
C920        C  0.04714085  0.77713489  0.37844463     0.69500
O921        O  0.06654110  0.79951383  0.39147916    -0.47300
C922        C  0.01811702  0.82890338  0.42298947     0.74200
O923        O  0.09133042  0.85021920  0.39336209    -0.59200
O924        O  0.51530601  0.82822415  0.38049092    -0.49300
O925        O  0.07575197  0.86736798  0.35043630    -0.55600
C926        C  0.04647345  0.82061309  0.27601945     0.84400
O927        O  0.02776508  0.77775063  0.36303782    -0.57500
O928        O  0.03580188  0.82502215  0.43631936    -0.60800
C929        C  0.36314107  0.87926359  0.52455518     0.85800
C930        C  0.35585695  0.85704217  0.55927268    -0.54500
C931        C  0.35103057  0.83362412  0.54130426     0.08700
C932        C  0.35427929  0.83470467  0.48872885     0.19700
C933        C  0.38656592  0.88273619  0.49736410    -0.55200
C934        C  0.38286801  0.85943372  0.48087166     0.08800
C935        C  0.34060976  0.86662190  0.48978636    -0.54700
C936        C  0.33577476  0.84365182  0.47036383     0.09400
H937        H  0.35484697  0.85984782  0.59546834     0.13900
H938        H  0.35051102  0.81587474  0.47348137    -0.00400
H939        H  0.40550061  0.90152720  0.49344985     0.14200
H940        H  0.33001602  0.87601688  0.47951429     0.14000
C941        C  0.01870597  0.62947362  0.52624479     0.85800
C942        C  0.00978755  0.64144085  0.56220838    -0.54500
C943        C  0.49383696  0.64956421  0.54568301     0.08700
C944        C  0.48763980  0.64441929  0.49410356     0.19700
C945        C  0.99205324  0.60647925  0.50665172    -0.55200
C946        C  0.47590709  0.61403851  0.48926245     0.08800
C947        C  0.03111021  0.65058476  0.48859044    -0.54700
C948        C  0.01523730  0.65832296  0.47125960     0.09400
H949        H  0.01305925  0.64098990  0.59824130     0.13900
H950        H  0.47455324  0.65079851  0.48051402    -0.00400
H951        H  0.48555177  0.58547564  0.50914918     0.14200
H952        H  0.05109857  0.65853149  0.47584477     0.14000
In953      In  0.44965352  0.66253006  0.63543744     1.36900
C954        C  0.40422291  0.61591482  0.62422148     0.76900
O955        O  0.46326884  0.66246763  0.56413949    -0.61600
O956        O  0.48219192  0.65631607  0.61954894    -0.52500
C957        C  0.45510133  0.70916976  0.62329807     0.69500
O958        O  0.43449896  0.68729958  0.61168491    -0.47300
C959        C  0.45201434  0.66302432  0.72579340     0.74200
O960        O  0.40800930  0.63744023  0.60805085    -0.59200
O961        O  0.47110391  0.66667599  0.70174538    -0.49300
O962        O  0.42386536  0.61813255  0.64467497    -0.55600
C963        C  0.47982236  0.65693424  0.57706729     0.84400
O964        O  0.47395508  0.70755133  0.63831551    -0.57500
O965        O  0.43234560  0.65966227  0.70371107    -0.60800
In966      In  0.33143054  0.54535268  0.62618529     1.36900
C967        C  0.28551479  0.54036810  0.61569763     0.76900
O968        O  0.33280616  0.53235510  0.55465299    -0.61600
O969        O  0.33586122  0.01150792  0.61079367    -0.52500
C970        C  0.37870993  0.59037859  0.62142738     0.69500
O971        O  0.35855690  0.58788472  0.60234067    -0.47300
C972        C  0.32838989  0.54206698  0.71597501     0.74200
O973        O  0.30697690  0.56088463  0.60226290    -0.59200
O974        O  0.32506139  0.02287780  0.69204550    -0.49300
O975        O  0.28717602  0.02130873  0.63021243    -0.55600
C976        C  0.33637054  0.01435451  0.56827350     0.84400
O977        O  0.37495638  0.56947506  0.64032764    -0.57500
O978        O  0.33299171  0.56245183  0.69399579    -0.60800
C979        C  0.36023227  0.97140545  0.52168886     0.85800
C980        C  0.38439293  0.99720340  0.50143133    -0.54500
C981        C  0.37841036  0.51468545  0.48329998     0.08700
C982        C  0.34866680  0.50460832  0.48658899     0.19700
C983        C  0.34859614  0.98153402  0.55574417    -0.55200
C984        C  0.34267661  0.99897485  0.53795151     0.08800
C985        C  0.34029998  0.95971471  0.48258904    -0.54700
C986        C  0.33393752  0.97655396  0.46429317     0.09400
H987        H  0.40472896  0.00240240  0.50335496     0.13900
H988        H  0.34368886  0.51865101  0.47186507    -0.00400
H989        H  0.34655062  0.97632869  0.59162914     0.14200
H990        H  0.33169755  0.93935398  0.47020214     0.14000
In991      In  0.28133557  0.93811727  0.35971977     1.36900
C992        C  0.23971090  0.94199569  0.37110925     0.76900
O993        O  0.29231515  0.94384708  0.43249699    -0.61600
O994        O  0.31857165  0.97559251  0.38773963    -0.52500
C995        C  0.28361077  0.89450364  0.36515377     0.69500
O996        O  0.26337304  0.89450790  0.37689207    -0.47300
C997        C  0.28387176  0.94177212  0.26967510     0.74200
O998        O  0.23941210  0.92121945  0.38181413    -0.59200
O999        O  0.30281485  0.95920570  0.29424108    -0.49300
O1000       O  0.26179795  0.96144561  0.35704184    -0.55600
C1001       C  0.31403876  0.96606265  0.42760754     0.84400
O1002       O  0.30291831  0.91691637  0.35147361    -0.57500
O1003       O  0.26423297  0.92325973  0.29122164    -0.60800
In1004     In  0.28354790  0.82473046  0.36329771     1.36900
C1005       C  0.23947580  0.77660705  0.37443620     0.76900
O1006       O  0.26682208  0.81971473  0.29403185    -0.61600
O1007       O  0.30643344  0.82907843  0.29825266    -0.52500
C1008       C  0.28422196  0.87006882  0.36598921     0.69500
O1009       O  0.26474958  0.84775776  0.37949742    -0.47300
C1010       C  0.31589621  0.83241303  0.43307675     0.74200
O1011       O  0.24145633  0.79808719  0.38534681    -0.59200
O1012       O  0.31896754  0.82469360  0.39504523    -0.49300
O1013       O  0.26081258  0.77933601  0.36105545    -0.55600
C1014       C  0.28712779  0.82434888  0.27301653     0.84400
O1015       O  0.30381572  0.86948393  0.35211882    -0.57500
O1016       O  0.29574697  0.83385744  0.43520379    -0.60800
In1017     In  0.21780588  0.65514629  0.62936527     1.36900
C1018       C  0.26283575  0.70350092  0.61779228     0.76900
O1019       O  0.20264268  0.65434398  0.55770687    -0.61600
O1020       O  0.17793352  0.64905303  0.61299290    -0.52500
C1021       C  0.21526024  0.60896125  0.61922482     0.69500
O1022       O  0.23509614  0.63141360  0.60714721    -0.47300
C1023       C  0.21599763  0.65511681  0.72083266     0.74200
O1024       O  0.25966277  0.68211100  0.60288564    -0.59200
O1025       O  0.20102590  0.65907757  0.69636438    -0.49300
O1026       O  0.24236366  0.70058639  0.63576885    -0.55600
C1027       C  0.18048357  0.64975653  0.57043054     0.84400
O1028       O  0.19603299  0.60980854  0.63410032    -0.57500
O1029       O  0.23150587  0.65123992  0.69867924    -0.60800
In1030     In  0.21857957  0.54118412  0.62994498     1.36900
C1031       C  0.18783725  0.01075970  0.56336788     0.76900
O1032       O  0.19584037  0.56168814  0.63142132    -0.61600
O1033       O  0.23618828  0.58449147  0.61070329    -0.52500
C1034       C  0.21582884  0.53710743  0.71946261     0.69500
O1035       O  0.19884481  0.01803062  0.69466705    -0.47300
C1036       C  0.26105656  0.53979630  0.61821993     0.74200
O1037       O  0.17962529  0.00626659  0.60386508    -0.59200
O1038       O  0.26014005  0.55979877  0.60677558    -0.49300
O1039       O  0.21212990  0.52841109  0.55832433    -0.55600
C1040       C  0.21552707  0.58430061  0.61947685     0.84400
O1041       O  0.23384858  0.55741507  0.69841879    -0.57500
O1042       O  0.23995754  0.02013297  0.63492073    -0.60800
C1043       C  0.11198596  0.62547005  0.51706066     0.85800
C1044       C  0.11250892  0.60183589  0.49858024    -0.54500
C1045       C  0.13665627  0.60810389  0.48336674     0.08700
C1046       C  0.15867493  0.63820999  0.48721577     0.19700
C1047       C  0.13406708  0.63716707  0.55393787    -0.55200
C1048       C  0.15852559  0.64376738  0.53854649     0.08800
C1049       C  0.12308049  0.64634399  0.47934904    -0.54700
C1050       C  0.14707535  0.65302256  0.46326205     0.09400
H1051       H  0.09628334  0.58115399  0.50330824     0.13900
H1052       H  0.17830724  0.64345698  0.47411940    -0.00400
H1053       H  0.13034655  0.63789083  0.58974074     0.14200
H1054       H  0.11251328  0.65519178  0.46599473     0.14000
In1055     In  0.05287819  0.71113074  0.36519083     1.36900
C1056       C  0.04824952  0.75297220  0.37734994     0.76900
O1057       O  0.06716223  0.72832320  0.29636504    -0.61600
O1058       O  0.03193341  0.68909634  0.29985869    -0.52500
C1059       C  0.09600933  0.70817458  0.36876400     0.69500
O1060       O  0.09629393  0.72865338  0.38136497    -0.47300
C1061       C  0.02589498  0.67832941  0.43420657     0.74200
O1062       O  0.06905236  0.75352971  0.38758737    -0.59200
O1063       O  0.51548479  0.67435633  0.39514634    -0.49300
O1064       O  0.02931451  0.73062528  0.36287465    -0.55600
C1065       C  0.04901965  0.70825964  0.27501968     0.84400
O1066       O  0.07359867  0.68902302  0.35508305    -0.57500
O1067       O  0.04866374  0.69948889  0.43778934    -0.60800
In1068     In  0.16523209  0.70769196  0.36156051     1.36900
C1069       C  0.21359849  0.75111624  0.37350316     0.76900
O1070       O  0.16510550  0.69694030  0.43440139    -0.61600
O1071       O  0.15775877  0.66755481  0.38556244    -0.52500
C1072       C  0.12012691  0.70716675  0.36842070     0.69500
O1073       O  0.14233258  0.72612636  0.38283655    -0.47300
C1074       C  0.16678455  0.70576213  0.27127317     0.74200
O1075       O  0.19263646  0.74988899  0.38419417    -0.59200
O1076       O  0.16476366  0.68716717  0.29587603    -0.49300
O1077       O  0.21011915  0.72948526  0.35878082    -0.55600
C1078       C  0.15876839  0.67332189  0.42701246     0.84400
O1079       O  0.12059658  0.68781639  0.35219795    -0.57500
O1080       O  0.16840575  0.72481477  0.29287733    -0.60800
C1081       C  0.03931216  0.60412794  0.50747419    -0.27000
C1082       C  0.03814729  0.62121170  0.53890467    -0.15100
C1083       C  0.06048971  0.63632392  0.56822931     0.35500
C1084       C  0.08258318  0.63424467  0.56446847    -0.26500
C1085       C  0.08440095  0.61881008  0.53036395    -0.15700
C1086       C  0.06190977  0.60354823  0.50138236     0.36600
N1087       N  0.06178395  0.58947879  0.46183958    -0.90000
H1088       H  0.02384179  0.59353004  0.48221595     0.17700
H1089       H  0.09956855  0.64738385  0.58566718     0.17700
N1090       N  0.06267892  0.65545323  0.60025216    -0.89000
H1091       H  0.06064876  0.57190069  0.47109613     0.35100
H1092       H  0.07818579  0.60196829  0.44121224     0.40200
H1093       H  0.04844840  0.64538748  0.62563850     0.39800
H1094       H  0.06050997  0.66977246  0.58361200     0.34700
C1095       C  0.44528642  0.57283848  0.44511966    -0.27000
C1096       C  0.44850251  0.59305971  0.47426954    -0.15100
C1097       C  0.42612627  0.58902869  0.49748846     0.35500
C1098       C  0.40190607  0.56389086  0.49569666    -0.26500
C1099       C  0.39989041  0.54261629  0.47139834    -0.15700
C1100       C  0.42119795  0.54767223  0.44363259     0.36600
N1101       N  0.41886366  0.52675528  0.41590232    -0.90000
H1102       H  0.46226242  0.57577228  0.42656795     0.17700
H1103       H  0.38561298  0.56029456  0.51710703     0.17700
N1104       N  0.42868219  0.60922919  0.52710596    -0.89000
H1105       H  0.43368118  0.52347296  0.42581198     0.35100
H1106       H  0.42251033  0.03356027  0.38223978     0.40200
H1107       H  0.42467374  0.60124219  0.55993496     0.39800
H1108       H  0.41424445  0.61323241  0.51805577     0.34700
C1109       C  0.38893904  0.95269882  0.54216783    -0.27000
C1110       C  0.36409902  0.95002156  0.54166816    -0.15100
C1111       C  0.34149765  0.92518181  0.55585767     0.35500
C1112       C  0.34293947  0.90254012  0.55849568    -0.26500
C1113       C  0.36636316  0.90422955  0.54598854    -0.15700
C1114       C  0.39034831  0.92998065  0.54655568     0.36600
N1115       N  0.41575447  0.93392515  0.55644766    -0.90000
H1116       H  0.40731320  0.97207439  0.53898657     0.17700
H1117       H  0.32473613  0.88307180  0.56378128     0.17700
N1118       N  0.31639699  0.92228393  0.56300664    -0.89000
H1119       H  0.42783832  0.94199835  0.52771702     0.35100
H1120       H  0.41375715  0.91589379  0.56581721     0.40200
H1121       H  0.31009743  0.91496622  0.59597327     0.39800
H1122       H  0.30252621  0.90791682  0.54027248     0.34700
C1123       C  0.43479994  0.84540812  0.43876180    -0.27000
C1124       C  0.45401238  0.85748914  0.47382738    -0.15100
C1125       C  0.44912980  0.86993659  0.50993940     0.35500
C1126       C  0.42600610  0.86996672  0.51061599    -0.26500
C1127       C  0.40682695  0.85798642  0.47617784    -0.15700
C1128       C  0.41115062  0.84551678  0.43972090     0.36600
N1129       N  0.39146657  0.83270089  0.40447227    -0.90000
H1130       H  0.43745798  0.83485210  0.41175050     0.17700
H1131       H  0.42271653  0.87893146  0.53965815     0.17700
N1132       N  0.46696635  0.88130757  0.54797131    -0.89000
H1133       H  0.39758354  0.82435623  0.38026105     0.35100
H1134       H  0.39017443  0.84757395  0.38777316     0.40200
H1135       H  0.45653500  0.87127693  0.57749203     0.39800
H1136       H  0.47321642  0.90148902  0.55070981     0.34700
C1137       C  0.07007552  0.89591582  0.49088803    -0.27000
C1138       C  0.04993341  0.89520746  0.51582333    -0.15100
C1139       C  0.05616902  0.91738865  0.54282935     0.35500
C1140       C  0.08179317  0.94082798  0.54098734    -0.26500
C1141       C  0.10130693  0.94271162  0.51196437    -0.15700
C1142       C  0.09544201  0.91937163  0.48815805     0.36600
N1143       N  0.11367609  0.91931316  0.45740437    -0.90000
H1144       H  0.06549347  0.87895278  0.46994474     0.17700
H1145       H  0.08593226  0.95824862  0.56012261     0.17700
N1146       N  0.03627068  0.91645051  0.57100520    -0.89000
H1147       H  0.13052331  0.92333450  0.47536499     0.35100
H1148       H  0.11851991  0.93389401  0.43255833     0.40200
H1149       H  0.04328318  0.92008423  0.60448551     0.39800
H1150       H  0.03397056  0.93202351  0.56094266     0.34700
C1151       C  0.13427615  0.54513276  0.50984350    -0.27000
C1152       C  0.14252786  0.53957075  0.46902868    -0.15100
C1153       C  0.14994191  0.55790190  0.43234232     0.35500
C1154       C  0.14851576  0.58075256  0.43749975    -0.26500
C1155       C  0.14145798  0.58633830  0.47935141    -0.15700
C1156       C  0.13562098  0.56880260  0.51643053     0.36600
N1157       N  0.13259699  0.57510216  0.56207674    -0.90000
H1158       H  0.12914246  0.53192329  0.53903788     0.17700
H1159       H  0.15303467  0.59418580  0.40890203     0.17700
N1160       N  0.15917439  0.55396178  0.39038229    -0.89000
H1161       H  0.11568490  0.57583064  0.56512465     0.35100
H1162       H  0.14947751  0.59364921  0.57088758     0.40200
H1163       H  0.17832144  0.57075198  0.38444494     0.39800
H1164       H  0.14671961  0.55300519  0.36436703     0.34700
C1165       C  0.41546278  0.54187424  0.04804562    -0.27000
C1166       C  0.39656376  0.53942998  0.01664675    -0.15100
C1167       C  0.40119657  0.56267071  0.99416854     0.35500
C1168       C  0.42561937  0.58725804  0.99971081    -0.26500
C1169       C  0.44575385  0.58877593  0.02655956    -0.15700
C1170       C  0.43998183  0.56634433  0.05318512     0.36600
N1171       N  0.45980013  0.56790332  0.08297387    -0.90000
H1172       H  0.41199917  0.52425258  0.06609092     0.17700
H1173       H  0.42984918  0.60425675  0.97881665     0.17700
N1174       N  0.38254148  0.56082608  0.96158878    -0.89000
H1175       H  0.46356241  0.55340470  0.07290629     0.35100
H1176       H  0.45186921  0.56293819  0.11574394     0.40200
H1177       H  0.39204505  0.56624719  0.93009381     0.39800
H1178       H  0.37773025  0.57475386  0.97018143     0.34700
C1179       C  0.33904705  0.89844248  0.93599936    -0.27000
C1180       C  0.36287039  0.90070926  0.94841548    -0.15100
C1181       C  0.38662557  0.92657462  0.94597170     0.35500
C1182       C  0.38494013  0.94921796  0.94742302    -0.26500
C1183       C  0.36002195  0.94639138  0.94740567    -0.15700
C1184       C  0.33724842  0.92097593  0.93564392     0.36600
N1185       N  0.31178176  0.91761061  0.92870180    -0.90000
H1186       H  0.32104271  0.87866493  0.93217263     0.17700
H1187       H  0.40323631  0.96877270  0.94873174     0.17700
N1188       N  0.41210044  0.93063828  0.93696754    -0.89000
H1189       H  0.29672317  0.89727447  0.92548274     0.35100
H1190       H  0.31248632  0.92649952  0.89753704     0.40200
H1191       H  0.41027446  0.91263701  0.92851994     0.39800
H1192       H  0.42417202  0.93902379  0.96572648     0.34700
C1193       C  0.06488955  0.60309310  0.99735121    -0.27000
C1194       C  0.08443338  0.61854983  0.96449124    -0.15100
C1195       C  0.07890239  0.63256444  0.93183025     0.35500
C1196       C  0.05465002  0.63110393  0.93379908    -0.26500
C1197       C  0.03627090  0.61743488  0.96931012    -0.15700
C1198       C  0.04170807  0.60274735  0.00092828     0.36600
N1199       N  0.02580885  0.58933900  0.04032951    -0.90000
H1200       H  0.06868622  0.59342412  0.02487167     0.17700
H1201       H  0.05194281  0.64348832  0.91033125     0.17700
N1202       N  0.09859475  0.65005628  0.89906327    -0.89000
H1203       H  0.00773764  0.57221277  0.03076399     0.35100
H1204       H  0.02312581  0.60237875  0.05962298     0.40200
H1205       H  0.11396228  0.66655365  0.91664230     0.39800
H1206       H  0.09088525  0.65774161  0.87621322     0.34700
C1207       C  0.43416589  0.84476880  0.05999306    -0.27000
C1208       C  0.45235234  0.85527102  0.02347193    -0.15100
C1209       C  0.44634142  0.86598920  0.98548905     0.35500
C1210       C  0.42291968  0.86547580  0.98412215    -0.26500
C1211       C  0.40466950  0.85489133  0.01983122    -0.15700
C1212       C  0.41025125  0.84442067  0.05842891     0.36600
N1213       N  0.39197291  0.83383403  0.09586056    -0.90000
H1214       H  0.43785594  0.83582358  0.08881690     0.17700
H1215       H  0.41874288  0.87313116  0.95385269     0.17700
N1216       N  0.46340829  0.87622506  0.94651230    -0.89000
H1217       H  0.39948698  0.82783907  0.12217737     0.35100
H1218       H  0.37452556  0.81644906  0.08471149     0.40200
H1219       H  0.46920764  0.89615605  0.94124589     0.39800
H1220       H  0.45251451  0.86504359  0.91812115     0.34700
C1221       C  0.06876300  0.89693962  0.00572849    -0.27000
C1222       C  0.04783055  0.89428245  0.97976409    -0.15100
C1223       C  0.05271270  0.91536916  0.95037988     0.35500
C1224       C  0.07777712  0.93964134  0.95056979    -0.26500
C1225       C  0.09809916  0.94318245  0.97974967    -0.15700
C1226       C  0.09364435  0.92127163  0.00640892     0.36600
N1227       N  0.11336472  0.92436590  0.03774973    -0.90000
H1228       H  0.06520461  0.88094994  0.02872105     0.17700
H1229       H  0.08096690  0.95619910  0.92947280     0.17700
N1230       N  0.03201710  0.91238835  0.92124056    -0.89000
H1231       H  0.10535082  0.92117420  0.07032328     0.35100
H1232       H  0.11719464  0.90949529  0.03100865     0.40200
H1233       H  0.03880382  0.91536589  0.88772436     0.39800
H1234       H  0.02873764  0.92751116  0.92907781     0.34700
C1235       C  0.13567094  0.57338867  0.97831527    -0.27000
C1236       C  0.14316682  0.58937276  0.01716200    -0.15100
C1237       C  0.15099869  0.58163400  0.05647183     0.35500
C1238       C  0.15117640  0.55797305  0.05603574    -0.26500
C1239       C  0.14275353  0.54142548  0.01719985    -0.15700
C1240       C  0.13437927  0.54933958  0.97839557     0.36600
N1241       N  0.12505207  0.53317376  0.93813664    -0.90000
H1242       H  0.12953321  0.57907384  0.94786584     0.17700
H1243       H  0.15795971  0.55282374  0.08608121     0.17700
N1244       N  0.15844492  0.59719636  0.09719121    -0.89000
H1245       H  0.10572593  0.52819070  0.93122454     0.35100
H1246       H  0.13722137  0.54470576  0.91097864     0.40200
H1247       H  0.14240623  0.59836943  0.10732725     0.39800
H1248       H  0.17442864  0.61663753  0.08963812     0.34700
In1249     In  0.83731704  0.27064376  0.86426781     1.36900
C1250       C  0.78835421  0.22681358  0.87626747     0.76900
O1251       O  0.84199464  0.28707686  0.93655364    -0.61600
O1252       O  0.84099113  0.30931207  0.88107533    -0.52500
C1253       C  0.88320433  0.27340584  0.87222647     0.69500
O1254       O  0.86119097  0.25304577  0.88438624    -0.47300
C1255       C  0.83719737  0.27275580  0.77274501     0.74200
O1256       O  0.80906410  0.22845877  0.89068641    -0.59200
O1257       O  0.83672791  0.28992458  0.79709623    -0.49300
O1258       O  0.79241881  0.24818790  0.85881857    -0.55600
C1259       C  0.84349159  0.30814646  0.92347080     0.84400
O1260       O  0.88197371  0.29281753  0.85811968    -0.57500
O1261       O  0.83759554  0.25477869  0.79503309    -0.60800
In1262     In  0.95220970  0.27343024  0.86504021     1.36900
C1263       C  0.97905156  0.30638918  0.93234035     0.76900
O1264       O  0.93019726  0.29449593  0.86107636    -0.61600
O1265       O  0.90858609  0.25336020  0.88048405    -0.52500
C1266       C  0.95578526  0.27679797  0.77511490     0.69500
O1267       O  0.97478781  0.29389510  0.79993982    -0.47300
C1268       C  0.95613970  0.23165757  0.87784189     0.74200
O1269       O  0.48659376  0.31307422  0.89172063    -0.59200
O1270       O  0.93606799  0.23188596  0.88941222    -0.49300
O1271       O  0.96007989  0.28244483  0.93808899    -0.55600
C1272       C  0.90801981  0.27390705  0.87197536     0.84400
O1273       O  0.93580211  0.25856690  0.79632321    -0.57500
O1274       O  0.97518122  0.25348303  0.86172620    -0.60800
C1275       C  0.64551937  0.01744478  0.01250799     0.85800
C1276       C  0.61932609  0.49148406  0.99868346    -0.54500
C1277       C  0.62188577  0.47068198  0.98746519     0.08700
C1278       C  0.65076314  0.47782927  0.99071549     0.19700
C1279       C  0.65627810  0.00841931  0.05186855    -0.55200
C1280       C  0.65902555  0.48760216  0.04019578     0.08800
C1281       C  0.66477103  0.02370117  0.97399960    -0.54700
C1282       C  0.66713062  0.50330091  0.96173741     0.09400
H1283       H  0.60018315  0.48947880  0.99958996     0.13900
H1284       H  0.65311580  0.46121528  0.98075955    -0.00400
H1285       H  0.66045514  0.01668739  0.08584996     0.14200
H1286       H  0.67575610  0.04316838  0.95691956     0.14000
C1287       C  0.97503282  0.35067012  0.01854180     0.85800
C1288       C  0.98393040  0.33977864  0.05803056    -0.54500
C1289       C  0.50358994  0.33554306  0.04568104     0.08700
C1290       C  0.51203502  0.34217952  0.99528245     0.19700
C1291       C  0.00124812  0.37598475  0.00291695    -0.55200
C1292       C  0.52039570  0.37160552  0.98989792     0.08800
C1293       C  0.96700604  0.33018415  0.98096318    -0.54700
C1294       C  0.98597522  0.32588537  0.96832386     0.09400
H1295       H  0.97662798  0.33695754  0.09255712     0.13900
H1296       H  0.52759875  0.33854518  0.98479699    -0.00400
H1297       H  0.00470735  0.39595141  0.00404147     0.14200
H1298       H  0.94744323  0.31982682  0.96488804     0.14000
In1299     In  0.66995091  0.44076764  0.13098868     1.36900
C1300       C  0.62160687  0.39583359  0.12580631     0.76900
O1301       O  0.66804698  0.42303303  0.19841924    -0.61600
O1302       O  0.67641008  0.46283770  0.19673652    -0.52500
C1303       C  0.71528926  0.44336264  0.11870905     0.69500
O1304       O  0.69293777  0.42329417  0.10741675    -0.47300
C1305       C  0.66552701  0.47293872  0.07288088     0.74200
O1306       O  0.64129927  0.39888255  0.10453876    -0.59200
O1307       O  0.66660148  0.47629207  0.11524565    -0.49300
O1308       O  0.62630888  0.41615166  0.14765296    -0.55600
C1309       C  0.67254429  0.44318487  0.22046966     0.84400
O1310       O  0.71480985  0.46305289  0.13311357    -0.57500
O1311       O  0.66849778  0.45445606  0.06052245    -0.60800
In1312     In  0.54969537  0.32283153  0.13580260     1.36900
C1313       C  0.59555074  0.37036707  0.12684878     0.76900
O1314       O  0.53641387  0.32564049  0.06533305    -0.61600
O1315       O  0.51510531  0.32752138  0.12045178    -0.52500
C1316       C  0.54707229  0.27680798  0.12295809     0.69500
O1317       O  0.56717006  0.29952910  0.11330142    -0.47300
C1318       C  0.54649570  0.32049732  0.22622089     0.74200
O1319       O  0.59104240  0.34952439  0.10710455    -0.59200
O1320       O  0.52743017  0.31690460  0.20172818    -0.49300
O1321       O  0.57626729  0.36725086  0.14949509    -0.55600
C1322       C  0.51832946  0.32891270  0.07804651     0.84400
O1323       O  0.52725444  0.27718080  0.13607879    -0.57500
O1324       O  0.56647354  0.32472777  0.20454780    -0.60800
In1325     In  0.71694291  0.15347085  0.86260419     1.36900
C1326       C  0.76209382  0.20133828  0.87577539     0.76900
O1327       O  0.73101272  0.15040830  0.79360806    -0.61600
O1328       O  0.70097416  0.15887383  0.79516628    -0.52500
C1329       C  0.71401542  0.10710130  0.87177740     0.69500
O1330       O  0.73393822  0.12927934  0.88448086    -0.47300
C1331       C  0.67975357  0.14774339  0.92134120     0.74200
O1332       O  0.75861511  0.17966221  0.89050234    -0.59200
O1333       O  0.67643565  0.14555691  0.87886283    -0.49300
O1334       O  0.74183736  0.19889902  0.85718985    -0.55600
C1335       C  0.71585331  0.15485024  0.77106715     0.84400
O1336       O  0.69486910  0.10829156  0.85702941    -0.57500
O1337       O  0.70249454  0.15376139  0.93401284    -0.60800
In1338     In  0.71679070  0.03935554  0.85868279     1.36900
C1339       C  0.68512713  0.50889068  0.92436476     0.76900
O1340       O  0.73732585  0.51743876  0.85521904    -0.61600
O1341       O  0.75885335  0.05808899  0.87862127    -0.52500
C1342       C  0.71531944  0.03673997  0.76903256     0.69500
O1343       O  0.69769353  0.51743267  0.79284239    -0.47300
C1344       C  0.71407109  0.08239155  0.87059389     0.74200
O1345       O  0.67721591  0.50506572  0.88360096    -0.59200
O1346       O  0.73408980  0.08184830  0.88201435    -0.49300
O1347       O  0.70965445  0.02547578  0.93009028    -0.55600
C1348       C  0.75918656  0.03767111  0.86842022     0.84400
O1349       O  0.73306083  0.05662592  0.79109438    -0.57500
O1350       O  0.69489207  0.06055371  0.85507302    -0.60800
C1351       C  0.61268639  0.12640687  0.97612182     0.85800
C1352       C  0.63331428  0.13465314  0.93800838    -0.54500
C1353       C  0.65826848  0.14252445  0.95329272     0.08700
C1354       C  0.66001980  0.14088414  0.00588182     0.19700
C1355       C  0.61366245  0.10436961  0.00182529    -0.55200
C1356       C  0.63825487  0.11128736  0.01642047     0.08800
C1357       C  0.62499396  0.15000468  0.00833348    -0.54700
C1358       C  0.64916560  0.15746321  0.02509147     0.09400
H1359       H  0.62838223  0.13270894  0.90212795     0.13900
H1360       H  0.67998184  0.14707358  0.01910484    -0.00400
H1361       H  0.59716842  0.08344321  0.00077282     0.14200
H1362       H  0.61439029  0.15915742  0.01943905     0.14000
C1363       C  0.86040448  0.37594028  0.97020508     0.85800
C1364       C  0.88419973  0.37956200  0.99725868    -0.54500
C1365       C  0.88068291  0.35629483  0.01444558     0.08700
C1366       C  0.85218298  0.33147174  0.00657425     0.19700
C1367       C  0.85311077  0.35380035  0.93577257    -0.55200
C1368       C  0.84874836  0.33047847  0.95395898     0.08800
C1369       C  0.83815089  0.36309361  0.00519391    -0.54700
C1370       C  0.83370368  0.34024988  0.02484072     0.09400
H1371       H  0.90315885  0.39837824  0.00067838     0.13900
H1372       H  0.84850188  0.31258804  0.02182306    -0.00400
H1373       H  0.85195101  0.35667191  0.89952811     0.14200
H1374       H  0.82754465  0.37234018  0.01571584     0.14000
In1375     In  0.55223102  0.21031333  0.13475936     1.36900
C1376       C  0.54789035  0.25246453  0.12281001     0.76900
O1377       O  0.54595840  0.19721637  0.06279901    -0.61600
O1378       O  0.01460317  0.17236522  0.10865779    -0.52500
C1379       C  0.59581021  0.20821600  0.12877376     0.69500
O1380       O  0.59482992  0.22758659  0.11330403    -0.47300
C1381       C  0.54895948  0.20802585  0.22508385     0.74200
O1382       O  0.56907069  0.25336662  0.11521364    -0.59200
O1383       O  0.53173734  0.18873039  0.20079994    -0.49300
O1384       O  0.52830176  0.22952706  0.13363205    -0.55600
C1385       C  0.52379824  0.17561225  0.06894662     0.84400
O1386       O  0.57443530  0.18972186  0.14671564    -0.57500
O1387       O  0.56710974  0.22779672  0.20315137    -0.60800
In1388     In  0.66578425  0.20924251  0.13119130     1.36900
C1389       C  0.71403521  0.25275663  0.12079783     0.76900
O1390       O  0.66951739  0.22576407  0.19999647    -0.61600
O1391       O  0.66379650  0.18715993  0.19655464    -0.52500
C1392       C  0.62023009  0.20776918  0.12751582     0.69500
O1393       O  0.64207264  0.22729944  0.11281256    -0.47300
C1394       C  0.65965548  0.17737012  0.06207349     0.74200
O1395       O  0.69312525  0.25197459  0.11099206    -0.59200
O1396       O  0.66505504  0.17316658  0.10158875    -0.49300
O1397       O  0.71053432  0.23069266  0.13335480    -0.55600
C1398       C  0.66684151  0.20600137  0.22136513     0.84400
O1399       O  0.62131605  0.18834927  0.14244292    -0.57500
O1400       O  0.65907807  0.19818463  0.05832518    -0.60800
In1401     In  0.78107030  0.43859483  0.12982095     1.36900
C1402       C  0.73942644  0.44273692  0.11885650     0.76900
O1403       O  0.76405470  0.42368664  0.19822792    -0.61600
O1404       O  0.80289634  0.45936321  0.19530613    -0.52500
C1405       C  0.78430132  0.39551166  0.12587834     0.69500
O1406       O  0.76347141  0.39488929  0.11546627    -0.47300
C1407       C  0.81174042  0.46521348  0.05917441     0.74200
O1408       O  0.73892782  0.42185573  0.10860306    -0.59200
O1409       O  0.81758834  0.47549343  0.09843222    -0.49300
O1410       O  0.76171517  0.46215907  0.13242977    -0.55600
C1411       C  0.78385399  0.44193377  0.21981833     0.84400
O1412       O  0.80376677  0.41831496  0.13757026    -0.56300
O1413       O  0.78977477  0.44304927  0.05637071    -0.60800
In1414     In  0.78414400  0.32559488  0.13246336     1.36900
C1415       C  0.73990993  0.27808610  0.12123076     0.76900
O1416       O  0.79253417  0.32678135  0.05887348    -0.61600
O1417       O  0.82112947  0.32828836  0.10374900    -0.52500
C1418       C  0.78522148  0.37123232  0.12601946     0.69500
O1419       O  0.76534499  0.34861882  0.11526867    -0.47300
C1420       C  0.78721430  0.32443333  0.22302675     0.74200
O1421       O  0.74203301  0.29980025  0.11097642    -0.59200
O1422       O  0.80655946  0.32917544  0.19835678    -0.49300
O1423       O  0.76108127  0.28033258  0.13501408    -0.55600
C1424       C  0.81484629  0.32964684  0.06319671     0.84400
O1425       O  0.80529708  0.37095373  0.13838674    -0.57500
O1426       O  0.76703470  0.31994326  0.20137228    -0.60800
C1427       C  0.85644266  0.46835717  0.96518977     0.85800
C1428       C  0.84515211  0.47846822  0.92970317    -0.54500
C1429       C  0.83937681  0.49619353  0.94594061     0.08700
C1430       C  0.84542859  0.00236706  0.99725264     0.19700
C1431       C  0.88078462  0.49426535  0.98499847    -0.55200
C1432       C  0.87507553  0.01217512  0.00139471     0.08800
C1433       C  0.83649825  0.45735034  0.00415698    -0.54700
C1434       C  0.83055586  0.47465322  0.02106434     0.09400
H1435       H  0.84351550  0.47331830  0.89396777     0.13900
H1436       H  0.84066083  0.01669224  0.01079243    -0.00400
H1437       H  0.90093854  0.49886992  0.98524722     0.14200
H1438       H  0.82791806  0.43722479  0.01804632     0.14000
C1439       C  0.51673875  0.12542042  0.98137321     0.85800
C1440       C  0.48993376  0.10240523  0.99926195    -0.54500
C1441       C  0.97376486  0.10989523  0.01599522     0.08700
C1442       C  0.98536339  0.14026208  0.01056010     0.19700
C1443       C  0.50856687  0.13797423  0.94421370    -0.55200
C1444       C  0.99194937  0.14550445  0.95915907     0.08800
C1445       C  0.52877920  0.14645081  0.01882270    -0.54700
C1446       C  0.51283861  0.15437025  0.03430881     0.09400
H1447       H  0.98274735  0.08147624  0.99370384     0.13900
H1448       H  0.97205229  0.14650639  0.02297054    -0.00400
H1449       H  0.51323505  0.13862313  0.90851048     0.14200
H1450       H  0.54878781  0.15467964  0.03204246     0.14000
In1451     In  0.94916708  0.15971539  0.86576566     1.36900
C1452       C  0.95573234  0.20688735  0.87884003     0.76900
O1453       O  0.95896173  0.15490322  0.93793273    -0.61600
O1454       O  0.48299247  0.15555549  0.88471086    -0.52500
C1455       C  0.90303370  0.11303780  0.86916462     0.69500
O1456       O  0.90609659  0.13427621  0.88474975    -0.47300
C1457       C  0.95192082  0.16228925  0.77556566     0.74200
O1458       O  0.93568351  0.18520679  0.89283353    -0.59200
O1459       O  0.97036290  0.16396119  0.79954600    -0.49300
O1460       O  0.97386408  0.20490306  0.86189336    -0.55600
C1461       C  0.97794151  0.15272435  0.92666756     0.84400
O1462       O  0.92386372  0.11534031  0.85421070    -0.57500
O1463       O  0.93266788  0.15952733  0.79767369    -0.60800
In1464     In  0.82952370  0.04341663  0.85567451     1.36900
C1465       C  0.87701519  0.08795668  0.86620685     0.76900
O1466       O  0.82951618  0.02941014  0.92710118    -0.61600
O1467       O  0.83354712  0.50912064  0.87185677    -0.52500
C1468       C  0.78378969  0.03847600  0.86822459     0.69500
O1469       O  0.80569187  0.05959169  0.87794907    -0.47300
C1470       C  0.82778496  0.04156017  0.76559875     0.74200
O1471       O  0.85619303  0.08534768  0.88188465    -0.59200
O1472       O  0.82432073  0.02208658  0.78929985    -0.49300
O1473       O  0.87364787  0.06756395  0.84642827    -0.55600
C1474       C  0.83336040  0.51158328  0.91434568     0.84400
O1475       O  0.78504616  0.51904861  0.85498309    -0.57500
O1476       O  0.83146899  0.06132444  0.78789398    -0.60800
In1477     In  0.95237901  0.27565615  0.63535454     1.36900
C1478       C  0.98055723  0.30927258  0.56963184     0.76900
O1479       O  0.97517290  0.25581183  0.63833129    -0.61600
O1480       O  0.93539344  0.23409196  0.61230597    -0.52500
C1481       C  0.95583016  0.27727319  0.72535187     0.69500
O1482       O  0.97480167  0.29492022  0.70113267    -0.47300
C1483       C  0.90839876  0.27608667  0.62537107     0.74200
O1484       O  0.48497515  0.31645578  0.61070198    -0.59200
O1485       O  0.90931386  0.25597504  0.61558195    -0.49300
O1486       O  0.96417331  0.28462255  0.56307035    -0.55600
C1487       C  0.95564440  0.23390590  0.62347508     0.84400
O1488       O  0.93595036  0.25938456  0.70351328    -0.57500
O1489       O  0.93015619  0.29629181  0.63869572    -0.60800
In1490     In  0.83788638  0.27265856  0.63104175     1.36900
C1491       C  0.78898338  0.22910019  0.61803312     0.76900
O1492       O  0.83781985  0.25561102  0.69971763    -0.61600
O1493       O  0.83711647  0.29090672  0.69865215    -0.52500
C1494       C  0.88362332  0.27548673  0.62423723     0.69500
O1495       O  0.86177939  0.25534611  0.61091070    -0.47300
C1496       C  0.84510215  0.31092624  0.57185563     0.74200
O1497       O  0.80967387  0.23116999  0.60292979    -0.59200
O1498       O  0.84257255  0.31189608  0.61419108    -0.49300
O1499       O  0.79299599  0.25005692  0.63669640    -0.55600
C1500       C  0.83736224  0.27323298  0.72249795     0.84400
O1501       O  0.88226273  0.29457866  0.63898144    -0.57500
O1502       O  0.84291575  0.28962462  0.55882722    -0.60800
C1503       C  0.64683049  0.01650052  0.47300036     0.85800
C1504       C  0.65768426  0.00753835  0.43453300    -0.54500
C1505       C  0.66158995  0.48762708  0.44784536     0.08700
C1506       C  0.65398654  0.47828392  0.49776857     0.19700
C1507       C  0.62131970  0.49021139  0.48817908    -0.55200
C1508       C  0.62475902  0.47005596  0.50082439     0.08800
C1509       C  0.66678162  0.02391637  0.51127616    -0.54700
C1510       C  0.66991878  0.50422122  0.52523851     0.09400
H1511       H  0.66090837  0.01472890  0.39984256     0.13900
H1512       H  0.65748294  0.46261061  0.50922018    -0.00400
H1513       H  0.60189196  0.48759914  0.48749651     0.14200
H1514       H  0.67746733  0.04362423  0.52730766     0.14000
C1515       C  0.97635638  0.35248083  0.48006214     0.85800
C1516       C  0.00316050  0.37779578  0.49371184    -0.54500
C1517       C  0.52205103  0.37300956  0.50742596     0.08700
C1518       C  0.51284648  0.34328779  0.50459395     0.19700
C1519       C  0.98417757  0.34028038  0.44175639    -0.55200
C1520       C  0.50360118  0.33573227  0.45476253     0.08800
C1521       C  0.96851972  0.33291694  0.51953397    -0.54700
C1522       C  0.98728707  0.32830326  0.53269907     0.09400
H1523       H  0.00718024  0.39794413  0.49064286     0.13900
H1524       H  0.52818279  0.33932372  0.51563893    -0.00400
H1525       H  0.97662332  0.33717021  0.40724780     0.14200
H1526       H  0.94922162  0.32327530  0.53618619     0.14000
In1527     In  0.67035420  0.43996625  0.35940549     1.36900
C1528       C  0.62182216  0.39583135  0.37009063     0.76900
O1529       O  0.67275806  0.45585940  0.42899981    -0.61600
O1530       O  0.66634799  0.47471376  0.37344275    -0.52500
C1531       C  0.71557597  0.44249666  0.37120939     0.69500
O1532       O  0.69335672  0.42241540  0.38306732    -0.47300
C1533       C  0.67245566  0.44287873  0.26993487     0.74200
O1534       O  0.64222391  0.39856573  0.38851107    -0.59200
O1535       O  0.67687187  0.46249505  0.29378747    -0.49300
O1536       O  0.62603918  0.41597403  0.34775684    -0.55600
C1537       C  0.66790363  0.47301715  0.41586561     0.84400
O1538       O  0.71498478  0.46211609  0.35616194    -0.57500
O1539       O  0.66733912  0.42228647  0.29184524    -0.60800
In1540     In  0.54958535  0.32313330  0.36622052     1.36900
C1541       C  0.59553232  0.37070109  0.37215768     0.76900
O1542       O  0.56662123  0.32538547  0.29821942    -0.61600
O1543       O  0.52718885  0.31664548  0.29993799    -0.52500
C1544       C  0.54714084  0.27713493  0.37844466     0.69500
O1545       O  0.56654109  0.29951386  0.39147924    -0.47300
C1546       C  0.51811703  0.32890341  0.42298959     0.74200
O1547       O  0.59133048  0.35021915  0.39336200    -0.59200
O1548       O  0.01530603  0.32822407  0.38049108    -0.49300
O1549       O  0.57575191  0.36736795  0.35043656    -0.55600
C1550       C  0.54647347  0.32061311  0.27601950     0.84400
O1551       O  0.52776506  0.27775066  0.36303783    -0.57500
O1552       O  0.53580195  0.32502227  0.43631951    -0.60800
C1553       C  0.86314111  0.37926359  0.52455490     0.85800
C1554       C  0.85585705  0.35704224  0.55927250    -0.54500
C1555       C  0.85103064  0.33362417  0.54130417     0.08700
C1556       C  0.85427924  0.33470461  0.48872872     0.19700
C1557       C  0.88656591  0.38273613  0.49736369    -0.55200
C1558       C  0.88286795  0.35943363  0.48087132     0.08800
C1559       C  0.84060971  0.36662183  0.48978625    -0.54700
C1560       C  0.83577467  0.34365172  0.47036379     0.09400
H1561       H  0.85484705  0.35984790  0.59546817     0.13900
H1562       H  0.85051091  0.31587465  0.47348127    -0.00400
H1563       H  0.90550061  0.40152712  0.49344937     0.14200
H1564       H  0.83001595  0.37601678  0.47951424     0.14000
C1565       C  0.51870602  0.12947372  0.52624489     0.85800
C1566       C  0.50978764  0.14144093  0.56220853    -0.54500
C1567       C  0.99383699  0.14956424  0.54568318     0.08700
C1568       C  0.98763983  0.14441935  0.49410374     0.19700
C1569       C  0.49205327  0.10647931  0.50665191    -0.55200
C1570       C  0.97590715  0.11403858  0.48926263     0.08800
C1571       C  0.53111019  0.15058485  0.48859050    -0.54700
C1572       C  0.51523726  0.15832303  0.47125974     0.09400
H1573       H  0.51305938  0.14099002  0.59824144     0.13900
H1574       H  0.97455324  0.15079854  0.48051425    -0.00400
H1575       H  0.98555185  0.08547576  0.50914957     0.14200
H1576       H  0.55109853  0.15853160  0.47584475     0.14000
In1577     In  0.94965357  0.16253010  0.63543751     1.36900
C1578       C  0.90422299  0.11591481  0.62422171     0.76900
O1579       O  0.96326880  0.16246754  0.56413957    -0.61600
O1580       O  0.98219201  0.15631618  0.61954907    -0.52500
C1581       C  0.95510131  0.20916980  0.62329820     0.69500
O1582       O  0.93449895  0.18729961  0.61168506    -0.47300
C1583       C  0.95201429  0.16302424  0.72579348     0.74200
O1584       O  0.90800943  0.13744020  0.60805090    -0.59200
O1585       O  0.97110389  0.16667595  0.70174550    -0.49300
O1586       O  0.92386543  0.11813254  0.64467526    -0.55600
C1587       C  0.97982237  0.15693424  0.57706741     0.84400
O1588       O  0.97395510  0.20755140  0.63831554    -0.57500
O1589       O  0.93234558  0.15966221  0.70371109    -0.60800
In1590     In  0.83143054  0.04535273  0.62618555     1.36900
C1591       C  0.78551474  0.04036803  0.61569781     0.76900
O1592       O  0.83280626  0.03235524  0.55465322    -0.61600
O1593       O  0.83586135  0.51150794  0.61079350    -0.52500
C1594       C  0.87870997  0.09037862  0.62142766     0.69500
O1595       O  0.85855693  0.08788483  0.60234110    -0.47300
C1596       C  0.82838980  0.04206699  0.71597526     0.74200
O1597       O  0.80697682  0.06088456  0.60226294    -0.59200
O1598       O  0.82506149  0.52287780  0.69204525    -0.49300
O1599       O  0.78717602  0.52130870  0.63021202    -0.55600
C1600       C  0.83637059  0.51435447  0.56827332     0.84400
O1601       O  0.87495638  0.06947503  0.64032774    -0.57500
O1602       O  0.83299170  0.06245186  0.69399604    -0.60800
C1603       C  0.86023230  0.47140543  0.52168862     0.85800
C1604       C  0.88439292  0.49720339  0.50143102    -0.54500
C1605       C  0.87841047  0.01468551  0.48330030     0.08700
C1606       C  0.84866693  0.00460844  0.48658921     0.19700
C1607       C  0.84859617  0.48153398  0.55574396    -0.55200
C1608       C  0.84267662  0.49897480  0.53795133     0.08800
C1609       C  0.84030000  0.45971466  0.48258881    -0.54700
C1610       C  0.83393743  0.47655385  0.46429304     0.09400
H1611       H  0.90472897  0.50240242  0.50335457     0.13900
H1612       H  0.84368906  0.01865118  0.47186524    -0.00400
H1613       H  0.84655065  0.47632862  0.59162893     0.14200
H1614       H  0.83169770  0.43935396  0.47020181     0.14000
In1615     In  0.78133555  0.43811728  0.35971951     1.36900
C1616       C  0.73971086  0.44199568  0.37110897     0.76900
O1617       O  0.79231519  0.44384683  0.43249663    -0.61600
O1618       O  0.81857150  0.47559258  0.38773960    -0.52500
C1619       C  0.78361071  0.39450361  0.36515346     0.69500
O1620       O  0.76337298  0.39450787  0.37689172    -0.47300
C1621       C  0.78387189  0.44177214  0.26967494     0.74200
O1622       O  0.73941211  0.42121946  0.38181385    -0.59200
O1623       O  0.80281496  0.45920571  0.29424097    -0.49300
O1624       O  0.76179789  0.46144560  0.35704147    -0.55600
C1625       C  0.81403868  0.46606253  0.42760737     0.84400
O1626       O  0.80291825  0.41691633  0.35147328    -0.57500
O1627       O  0.76423305  0.42325976  0.29122140    -0.60800
In1628     In  0.78354791  0.32473047  0.36329750     1.36900
C1629       C  0.73947587  0.27660709  0.37443592     0.76900
O1630       O  0.76682213  0.31971487  0.29403165    -0.61600
O1631       O  0.80643343  0.32907838  0.29825245    -0.52500
C1632       C  0.78422191  0.37006879  0.36598895     0.69500
O1633       O  0.76474948  0.34775770  0.37949694    -0.47300
C1634       C  0.81589612  0.33241294  0.43307668     0.74200
O1635       O  0.74145643  0.29808720  0.38534686    -0.59200
O1636       O  0.81896747  0.32469351  0.39504518    -0.49300
O1637       O  0.76081259  0.27933606  0.36105480    -0.55600
C1638       C  0.78712781  0.32434897  0.27301633     0.84400
O1639       O  0.80381575  0.36948393  0.35211884    -0.57500
O1640       O  0.79574690  0.33385740  0.43520365    -0.60800
In1641     In  0.71780592  0.15514636  0.62936525     1.36900
C1642       C  0.76283579  0.20350103  0.61779213     0.76900
O1643       O  0.70264276  0.15434391  0.55770680    -0.61600
O1644       O  0.67793363  0.14905318  0.61299273    -0.52500
C1645       C  0.71526028  0.10896130  0.61922492     0.69500
O1646       O  0.73509622  0.13141366  0.60714744    -0.47300
C1647       C  0.71599753  0.15511674  0.72083266     0.74200
O1648       O  0.75966280  0.18211113  0.60288537    -0.59200
O1649       O  0.70102583  0.15907755  0.69636436    -0.49300
O1650       O  0.74236372  0.20058648  0.63576882    -0.55600
C1651       C  0.68048369  0.14975659  0.57043039     0.84400
O1652       O  0.69603301  0.10980859  0.63410028    -0.57500
O1653       O  0.73150578  0.15123986  0.69867925    -0.60800
In1654     In  0.71857950  0.04118407  0.62994505     1.36900
C1655       C  0.68783736  0.51075962  0.56336785     0.76900
O1656       O  0.69584038  0.06168818  0.63142129    -0.61600
O1657       O  0.73618834  0.08449152  0.61070358    -0.52500
C1658       C  0.71582867  0.03710736  0.71946274     0.69500
O1659       O  0.69884494  0.51803071  0.69466702    -0.47300
C1660       C  0.76105647  0.03979615  0.61822006     0.74200
O1661       O  0.67962546  0.50626643  0.60386509    -0.59200
O1662       O  0.76013991  0.05979856  0.60677548    -0.49300
O1663       O  0.71212984  0.02841104  0.55832437    -0.55600
C1664       C  0.71552712  0.08430065  0.61947697     0.84400
O1665       O  0.73384838  0.05741502  0.69841893    -0.57500
O1666       O  0.73995772  0.52013314  0.63492065    -0.60800
C1667       C  0.61198611  0.12547020  0.51706046     0.85800
C1668       C  0.61250905  0.10183604  0.49858006    -0.54500
C1669       C  0.63665640  0.10810403  0.48336659     0.08700
C1670       C  0.65867508  0.13821013  0.48721559     0.19700
C1671       C  0.63406723  0.13716718  0.55393767    -0.55200
C1672       C  0.65852575  0.14376749  0.53854630     0.08800
C1673       C  0.62308067  0.14634417  0.47934890    -0.54700
C1674       C  0.64707554  0.15302277  0.46326192     0.09400
H1675       H  0.59628346  0.08115415  0.50330812     0.13900
H1676       H  0.67830738  0.14345708  0.47411922    -0.00400
H1677       H  0.63034667  0.13789088  0.58974053     0.14200
H1678       H  0.61251347  0.15519198  0.46599460     0.14000
In1679     In  0.55287810  0.21113079  0.36519089     1.36900
C1680       C  0.54824950  0.25297225  0.37735001     0.76900
O1681       O  0.56716208  0.22832323  0.29636505    -0.61600
O1682       O  0.53193330  0.18909634  0.29985880    -0.52500
C1683       C  0.59600924  0.20817465  0.36876398     0.69500
O1684       O  0.59629383  0.22865344  0.38136494    -0.47300
C1685       C  0.52589492  0.17832948  0.43420669     0.74200
O1686       O  0.56905230  0.25352973  0.38758764    -0.59200
O1687       O  0.01548473  0.17435644  0.39514649    -0.49300
O1688       O  0.52931450  0.23062537  0.36287457    -0.55600
C1689       C  0.54901953  0.20825961  0.27501973     0.84400
O1690       O  0.57359858  0.18902308  0.35508304    -0.57500
O1691       O  0.54866371  0.19948894  0.43778940    -0.60800
In1692     In  0.66523207  0.20769214  0.36156031     1.36900
C1693       C  0.71359855  0.25111630  0.37350298     0.76900
O1694       O  0.66510560  0.19694053  0.43440117    -0.61600
O1695       O  0.65775887  0.16755503  0.38556227    -0.52500
C1696       C  0.62012685  0.20716686  0.36842062     0.69500
O1697       O  0.64233257  0.22612663  0.38283600    -0.47300
C1698       C  0.66678453  0.20576230  0.27127303     0.74200
O1699       O  0.69263658  0.24988903  0.38419446    -0.59200
O1700       O  0.66476350  0.18716728  0.29587592    -0.49300
O1701       O  0.71011913  0.22948536  0.35878023    -0.55600
C1702       C  0.65876855  0.17332213  0.42701229     0.84400
O1703       O  0.62059649  0.18781641  0.35219822    -0.57500
O1704       O  0.66840586  0.22481502  0.29287712    -0.60800
C1705       C  0.53931225  0.10412808  0.50747415    -0.27000
C1706       C  0.53814742  0.12121187  0.53890461    -0.15100
C1707       C  0.56048988  0.13632413  0.56822916     0.35500
C1708       C  0.58258337  0.13424490  0.56446824    -0.26500
C1709       C  0.58440109  0.11881025  0.53036378    -0.15700
C1710       C  0.56190986  0.10354836  0.50138228     0.36600
N1711       N  0.56178399  0.08947889  0.46183951    -0.90000
H1712       H  0.52384183  0.09353014  0.48221600     0.17700
H1713       H  0.59956877  0.14738408  0.58566690     0.17700
N1714       N  0.56267904  0.15545335  0.60025215    -0.89000
H1715       H  0.56064881  0.07190079  0.47109610     0.35100
H1716       H  0.57818583  0.10196838  0.44121217     0.40200
H1717       H  0.54844853  0.14538751  0.62563847     0.39800
H1718       H  0.56050999  0.16977255  0.58361212     0.34700
C1719       C  0.94528643  0.07283858  0.44511985    -0.27000
C1720       C  0.94850256  0.09305981  0.47426974    -0.15100
C1721       C  0.92612635  0.08902879  0.49748873     0.35500
C1722       C  0.90190619  0.06389092  0.49569715    -0.26500
C1723       C  0.89989052  0.04261635  0.47139879    -0.15700
C1724       C  0.92119799  0.04767231  0.44363287     0.36600
N1725       N  0.91886368  0.02675540  0.41590247    -0.90000
H1726       H  0.96226241  0.07577240  0.42656803     0.17700
H1727       H  0.88561316  0.06029459  0.51710771     0.17700
N1728       N  0.92868235  0.10922929  0.52710631    -0.89000
H1729       H  0.93368122  0.02347307  0.42581205     0.35100
H1730       H  0.92251038  0.53356007  0.38223960     0.40200
H1731       H  0.92467403  0.10124229  0.55993531     0.39800
H1732       H  0.91424462  0.11323256  0.51805632     0.34700
C1733       C  0.88893910  0.45269887  0.54216757    -0.27000
C1734       C  0.86409909  0.45002158  0.54166796    -0.15100
C1735       C  0.84149776  0.42518183  0.55585756     0.35500
C1736       C  0.84293956  0.40254013  0.55849547    -0.26500
C1737       C  0.86636324  0.40422958  0.54598819    -0.15700
C1738       C  0.89034839  0.42998069  0.54655525     0.36600
N1739       N  0.91575460  0.43392524  0.55644701    -0.90000
H1740       H  0.90731325  0.47207446  0.53898635     0.17700
H1741       H  0.82473623  0.38307180  0.56378113     0.17700
N1742       N  0.81639713  0.42228397  0.56300669    -0.89000
H1743       H  0.92783834  0.44199838  0.52771627     0.35100
H1744       H  0.91375733  0.41589390  0.56581661     0.40200
H1745       H  0.81009764  0.41496627  0.59597337     0.39800
H1746       H  0.80252636  0.40791695  0.54027245     0.34700
C1747       C  0.93479999  0.34540814  0.43876161    -0.27000
C1748       C  0.95401235  0.35748910  0.47382729    -0.15100
C1749       C  0.94912972  0.36993650  0.50993932     0.35500
C1750       C  0.92600600  0.36996660  0.51061587    -0.26500
C1751       C  0.90682687  0.35798629  0.47617766    -0.15700
C1752       C  0.91115063  0.34551672  0.43972067     0.36600
N1753       N  0.89146665  0.33270083  0.40447192    -0.90000
H1754       H  0.93745813  0.33485223  0.41175023     0.17700
H1755       H  0.92271641  0.37893137  0.53965797     0.17700
N1756       N  0.96696631  0.38130754  0.54797117    -0.89000
H1757       H  0.89758368  0.32435624  0.38026075     0.35100
H1758       H  0.89017452  0.34757391  0.38777276     0.40200
H1759       H  0.95653501  0.37127693  0.57749194     0.39800
H1760       H  0.97321640  0.40148898  0.55070960     0.34700
C1761       C  0.57007555  0.39591575  0.49088834    -0.27000
C1762       C  0.54993342  0.39520747  0.51582344    -0.15100
C1763       C  0.55616904  0.41738868  0.54282940     0.35500
C1764       C  0.58179319  0.44082800  0.54098741    -0.26500
C1765       C  0.60130694  0.44271158  0.51196450    -0.15700
C1766       C  0.59544203  0.41937157  0.48815830     0.36600
N1767       N  0.61367610  0.41931307  0.45740465    -0.90000
H1768       H  0.56549352  0.37895267  0.46994520     0.17700
H1769       H  0.58593232  0.45824867  0.56012261     0.17700
N1770       N  0.53627071  0.41645060  0.57100517    -0.89000
H1771       H  0.63052328  0.42333433  0.47536528     0.35100
H1772       H  0.61851997  0.43389398  0.43255865     0.40200
H1773       H  0.54328319  0.42008428  0.60448545     0.39800
H1774       H  0.53397075  0.43202373  0.56094265     0.34700
C1775       C  0.63427629  0.04513293  0.50984342    -0.27000
C1776       C  0.64252791  0.03957086  0.46902854    -0.15100
C1777       C  0.64994194  0.05790199  0.43234214     0.35500
C1778       C  0.64851585  0.08075267  0.43749964    -0.26500
C1779       C  0.64145809  0.08633843  0.47935131    -0.15700
C1780       C  0.63562110  0.06880276  0.51643045     0.36600
N1781       N  0.63259707  0.07510230  0.56207667    -0.90000
H1782       H  0.62914269  0.03192352  0.53903785     0.17700
H1783       H  0.65303477  0.09418592  0.40890192     0.17700
N1784       N  0.65917446  0.05396190  0.39038207    -0.89000
H1785       H  0.61568505  0.07583089  0.56512459     0.35100
H1786       H  0.64947763  0.09364934  0.57088759     0.40200
H1787       H  0.67832151  0.07075213  0.38444470     0.39800
H1788       H  0.64671979  0.05300543  0.36436676     0.34700
C1789       C  0.91546266  0.04187421  0.04804579    -0.27000
C1790       C  0.89656367  0.03942999  0.01664691    -0.15100
C1791       C  0.90119647  0.06267074  0.99416872     0.35500
C1792       C  0.92561926  0.08725807  0.99971104    -0.26500
C1793       C  0.94575374  0.08877591  0.02655972    -0.15700
C1794       C  0.93998172  0.06634430  0.05318527     0.36600
N1795       N  0.95980006  0.06790326  0.08297385    -0.90000
H1796       H  0.91199907  0.02425251  0.06609093     0.17700
H1797       H  0.92984906  0.10425679  0.97881690     0.17700
N1798       N  0.88254146  0.06082615  0.96158878    -0.89000
H1799       H  0.96356231  0.05340464  0.07290614     0.35100
H1800       H  0.95186921  0.06293814  0.11574398     0.40200
H1801       H  0.89204514  0.06624732  0.93009390     0.39800
H1802       H  0.87773024  0.07475396  0.97018131     0.34700
C1803       C  0.83904710  0.39844251  0.93599911    -0.27000
C1804       C  0.86287043  0.40070926  0.94841529    -0.15100
C1805       C  0.88662564  0.42657460  0.94597154     0.35500
C1806       C  0.88494021  0.44921795  0.94742295    -0.26500
C1807       C  0.86002203  0.44639137  0.94740564    -0.15700
C1808       C  0.83724848  0.42097597  0.93564383     0.36600
N1809       N  0.81178184  0.41761070  0.92870176    -0.90000
H1810       H  0.82104276  0.37866499  0.93217218     0.17700
H1811       H  0.90323643  0.46877266  0.94873172     0.17700
N1812       N  0.91210050  0.43063821  0.93696751    -0.89000
H1813       H  0.79672318  0.39727457  0.92548292     0.35100
H1814       H  0.81248640  0.42649958  0.89753695     0.40200
H1815       H  0.91027452  0.41263693  0.92851998     0.39800
H1816       H  0.92417204  0.43902371  0.96572650     0.34700
C1817       C  0.56488935  0.10309297  0.99735089    -0.27000
C1818       C  0.58443322  0.11854976  0.96449101    -0.15100
C1819       C  0.57890221  0.13256435  0.93182995     0.35500
C1820       C  0.55464983  0.13110383  0.93379883    -0.26500
C1821       C  0.53627066  0.11743468  0.96930979    -0.15700
C1822       C  0.54170780  0.10274709  0.00092784     0.36600
N1823       N  0.52580850  0.08933860  0.04032894    -0.90000
H1824       H  0.56868603  0.09342404  0.02487143     0.17700
H1825       H  0.55194262  0.14348825  0.91033109     0.17700
N1826       N  0.59859449  0.15005611  0.89906277    -0.89000
H1827       H  0.50773731  0.07221236  0.03076333     0.35100
H1828       H  0.52312542  0.10237826  0.05962255     0.40200
H1829       H  0.61396208  0.16655354  0.91664164     0.39800
H1830       H  0.59088496  0.15774141  0.87621275     0.34700
C1831       C  0.93416595  0.34476886  0.05999301    -0.27000
C1832       C  0.95235240  0.35527104  0.02347185    -0.15100
C1833       C  0.94634150  0.36598924  0.98548899     0.35500
C1834       C  0.92291972  0.36547577  0.98412200    -0.26500
C1835       C  0.90466950  0.35489126  0.01983103    -0.15700
C1836       C  0.91025130  0.34442071  0.05842880     0.36600
N1837       N  0.89197299  0.33383417  0.09586049    -0.90000
H1838       H  0.93785604  0.33582372  0.08881693     0.17700
H1839       H  0.91874294  0.37313113  0.95385251     0.17700
N1840       N  0.96340840  0.37622519  0.94651230    -0.89000
H1841       H  0.89948703  0.32783919  0.12217730     0.35100
H1842       H  0.87452559  0.31644923  0.08471145     0.40200
H1843       H  0.96920763  0.39615614  0.94124585     0.39800
H1844       H  0.95251467  0.36504368  0.91812118     0.34700
C1845       C  0.56876314  0.39693964  0.00572843    -0.27000
C1846       C  0.54783068  0.39428250  0.97976412    -0.15100
C1847       C  0.55271288  0.41536916  0.95037977     0.35500
C1848       C  0.57777732  0.43964132  0.95056964    -0.26500
C1849       C  0.59809938  0.44318240  0.97974945    -0.15700
C1850       C  0.59364455  0.42127159  0.00640870     0.36600
N1851       N  0.61336487  0.42436586  0.03774964    -0.90000
H1852       H  0.56520472  0.38094999  0.02872112     0.17700
H1853       H  0.58096708  0.45619907  0.92947266     0.17700
N1854       N  0.53201732  0.41238828  0.92124026    -0.89000
H1855       H  0.60535090  0.42117417  0.07032312     0.35100
H1856       H  0.61719478  0.40949522  0.03100873     0.40200
H1857       H  0.53880413  0.41536579  0.88772412     0.39800
H1858       H  0.52873776  0.42751105  0.92907733     0.34700
C1859       C  0.63567075  0.07338865  0.97831544    -0.27000
C1860       C  0.64316668  0.08937277  0.01716210    -0.15100
C1861       C  0.65099866  0.08163411  0.05647188     0.35500
C1862       C  0.65117636  0.05797316  0.05603586    -0.26500
C1863       C  0.64275344  0.04142554  0.01720002    -0.15700
C1864       C  0.63437910  0.04933959  0.97839575     0.36600
N1865       N  0.62505196  0.03317383  0.93813678    -0.90000
H1866       H  0.62953303  0.07907383  0.94786600     0.17700
H1867       H  0.65795974  0.05282392  0.08608133     0.17700
N1868       N  0.65844505  0.09719663  0.09719106    -0.89000
H1869       H  0.60572583  0.02819078  0.93122460     0.35100
H1870       H  0.63722130  0.04470591  0.91097888     0.40200
H1871       H  0.64240634  0.09836964  0.10732727     0.39800
H1872       H  0.67442865  0.11663778  0.08963758     0.34700
In1873     In  0.83731708  0.77064393  0.86426788     1.36900
C1874       C  0.78835428  0.72681369  0.87626756     0.76900
O1875       O  0.84199484  0.78707707  0.93655368    -0.61600
O1876       O  0.84099088  0.80931212  0.88107551    -0.52500
C1877       C  0.88320435  0.77340596  0.87222631     0.69500
O1878       O  0.86119101  0.75304592  0.88438619    -0.47300
C1879       C  0.83719744  0.77275589  0.77274509     0.74200
O1880       O  0.80906421  0.72845890  0.89068634    -0.59200
O1881       O  0.83672826  0.78992485  0.79709623    -0.49300
O1882       O  0.79241882  0.74818803  0.85881885    -0.55600
C1883       C  0.84349154  0.80814655  0.92347093     0.84400
O1884       O  0.88197375  0.79281767  0.85811961    -0.57500
O1885       O  0.83759535  0.75477866  0.79503326    -0.60800
In1886     In  0.95220961  0.77343019  0.86504002     1.36900
C1887       C  0.97905142  0.80638909  0.93234036     0.76900
O1888       O  0.93019726  0.79449600  0.86107599    -0.61600
O1889       O  0.90858605  0.75336025  0.88048371    -0.52500
C1890       C  0.95578519  0.77679785  0.77511476     0.69500
O1891       O  0.97478769  0.79389505  0.79993969    -0.47300
C1892       C  0.95613970  0.73165756  0.87784164     0.74200
O1893       O  0.48659371  0.81307410  0.89172065    -0.59200
O1894       O  0.93606803  0.73188596  0.88941221    -0.49300
O1895       O  0.96007963  0.78244478  0.93808890    -0.55600
C1896       C  0.90801980  0.77390713  0.87197504     0.84400
O1897       O  0.93580204  0.75856673  0.79632302    -0.57500
O1898       O  0.97518116  0.75348300  0.86172576    -0.60800
C1899       C  0.64551948  0.51744473  0.01250790     0.85800
C1900       C  0.61932596  0.99148414  0.99868359    -0.54500
C1901       C  0.62188556  0.97068202  0.98746533     0.08700
C1902       C  0.65076292  0.97782925  0.99071560     0.19700
C1903       C  0.65627817  0.50841923  0.05186849    -0.55200
C1904       C  0.65902538  0.98760219  0.04019584     0.08800
C1905       C  0.66477119  0.52370117  0.97399955    -0.54700
C1906       C  0.66713044  0.00330088  0.96173754     0.09400
H1907       H  0.60018305  0.98947896  0.99959010     0.13900
H1908       H  0.65311549  0.96121520  0.98075965    -0.00400
H1909       H  0.66045509  0.51668725  0.08584994     0.14200
H1910       H  0.67575629  0.54316841  0.95691959     0.14000
C1911       C  0.97503277  0.85067010  0.01854192     0.85800
C1912       C  0.98393036  0.83977863  0.05803070    -0.54500
C1913       C  0.50358985  0.83554299  0.04568106     0.08700
C1914       C  0.51203490  0.84217944  0.99528244     0.19700
C1915       C  0.00124806  0.87598471  0.00291702    -0.55200
C1916       C  0.52039559  0.87160546  0.98989791     0.08800
C1917       C  0.96700597  0.83018411  0.98096330    -0.54700
C1918       C  0.98597511  0.82588531  0.96832389     0.09400
H1919       H  0.97662799  0.83695758  0.09255731     0.13900
H1920       H  0.52759862  0.83854508  0.98479694    -0.00400
H1921       H  0.00470732  0.89595139  0.00404154     0.14200
H1922       H  0.94744312  0.81982678  0.96488825     0.14000
In1923     In  0.66995078  0.94076769  0.13098860     1.36900
C1924       C  0.62160678  0.89583361  0.12580630     0.76900
O1925       O  0.66804700  0.92303308  0.19841916    -0.61600
O1926       O  0.67641001  0.96283770  0.19673647    -0.52500
C1927       C  0.71528908  0.94336260  0.11870895     0.69500
O1928       O  0.69293760  0.92329421  0.10741638    -0.47300
C1929       C  0.66552682  0.97293876  0.07288091     0.74200
O1930       O  0.64129918  0.89888260  0.10453869    -0.59200
O1931       O  0.66660128  0.97629211  0.11524567    -0.49300
O1932       O  0.62630878  0.91615167  0.14765301    -0.55600
C1933       C  0.67254429  0.94318491  0.22046961     0.84400
O1934       O  0.71480970  0.96305284  0.13311363    -0.57500
O1935       O  0.66849759  0.95445611  0.06052244    -0.60800
In1936     In  0.54969532  0.82283147  0.13580254     1.36900
C1937       C  0.59555067  0.87036707  0.12684877     0.76900
O1938       O  0.53641376  0.82564038  0.06533297    -0.61600
O1939       O  0.51510522  0.82752125  0.12045173    -0.52500
C1940       C  0.54707229  0.77680799  0.12295790     0.69500
O1941       O  0.56717002  0.79952911  0.11330104    -0.47300
C1942       C  0.54649562  0.82049723  0.22622087     0.74200
O1943       O  0.59104235  0.84952442  0.10710445    -0.59200
O1944       O  0.52743016  0.81690469  0.20172817    -0.49300
O1945       O  0.57626723  0.86725079  0.14949519    -0.55600
C1946       C  0.51832936  0.82891258  0.07804646     0.84400
O1947       O  0.52725446  0.77718078  0.13607880    -0.57500
O1948       O  0.56647337  0.82472746  0.20454776    -0.60800
In1949     In  0.71694307  0.65347095  0.86260420     1.36900
C1950       C  0.76209392  0.70133836  0.87577542     0.76900
O1951       O  0.73101301  0.65040860  0.79360805    -0.61600
O1952       O  0.70097417  0.65887372  0.79516629    -0.52500
C1953       C  0.71401559  0.60710140  0.87177738     0.69500
O1954       O  0.73393843  0.62927943  0.88448084    -0.47300
C1955       C  0.67975370  0.64774347  0.92134120     0.74200
O1956       O  0.75861527  0.67966227  0.89050211    -0.59200
O1957       O  0.67643579  0.64555697  0.87886283    -0.49300
O1958       O  0.74183741  0.69889912  0.85719011    -0.55600
C1959       C  0.71585346  0.65485033  0.77106715     0.84400
O1960       O  0.69486930  0.60829171  0.85702943    -0.57500
O1961       O  0.70249468  0.65376148  0.93401287    -0.60800
In1962     In  0.71679088  0.53935561  0.85868259     1.36900
C1963       C  0.68512695  0.00889063  0.92436497     0.76900
O1964       O  0.73732571  0.01743870  0.85521933    -0.61600
O1965       O  0.75885352  0.55808899  0.87862125    -0.52500
C1966       C  0.71531966  0.53674005  0.76903241     0.69500
O1967       O  0.69769329  0.01743263  0.79284258    -0.47300
C1968       C  0.71407122  0.58239163  0.87059379     0.74200
O1969       O  0.67721573  0.00506575  0.88360120    -0.59200
O1970       O  0.73408989  0.58184833  0.88201433    -0.49300
O1971       O  0.70965462  0.52547586  0.93009003    -0.55600
C1972       C  0.75918669  0.53767111  0.86842012     0.84400
O1973       O  0.73306100  0.55662604  0.79109423    -0.57500
O1974       O  0.69489223  0.56055382  0.85507275    -0.60800
C1975       C  0.61268653  0.62640691  0.97612190     0.85800
C1976       C  0.63331440  0.63465321  0.93800841    -0.54500
C1977       C  0.65826860  0.64252452  0.95329271     0.08700
C1978       C  0.66001994  0.64088416  0.00588182     0.19700
C1979       C  0.61366259  0.60436963  0.00182525    -0.55200
C1980       C  0.63825501  0.61128736  0.01642040     0.08800
C1981       C  0.62499414  0.65000473  0.00833358    -0.54700
C1982       C  0.64916577  0.65746321  0.02509159     0.09400
H1983       H  0.62838233  0.63270904  0.90212798     0.13900
H1984       H  0.67998199  0.64707359  0.01910480    -0.00400
H1985       H  0.59716855  0.58344323  0.00077269     0.14200
H1986       H  0.61439051  0.65915751  0.01943913     0.14000
C1987       C  0.86040447  0.87594031  0.97020529     0.85800
C1988       C  0.88419975  0.87956206  0.99725878    -0.54500
C1989       C  0.88068292  0.85629488  0.01444570     0.08700
C1990       C  0.85218299  0.83147176  0.00657443     0.19700
C1991       C  0.85311075  0.85380041  0.93577274    -0.55200
C1992       C  0.84874832  0.83047852  0.95395915     0.08800
C1993       C  0.83815089  0.86309362  0.00519419    -0.54700
C1994       C  0.83370372  0.84024990  0.02484100     0.09400
H1995       H  0.90315888  0.89837831  0.00067842     0.13900
H1996       H  0.84850190  0.81258804  0.02182318    -0.00400
H1997       H  0.85195103  0.85667200  0.89952827     0.14200
H1998       H  0.82754462  0.87234017  0.01571609     0.14000
In1999     In  0.55223108  0.71031340  0.13475936     1.36900
C2000       C  0.54789039  0.75246458  0.12280993     0.76900
O2001       O  0.54595829  0.69721660  0.06279897    -0.61600
O2002       O  0.01460318  0.67236533  0.10865778    -0.52500
C2003       C  0.59581025  0.70821599  0.12877365     0.69500
O2004       O  0.59482999  0.72758662  0.11330403    -0.47300
C2005       C  0.54895955  0.70802594  0.22508381     0.74200
O2006       O  0.56907071  0.75336666  0.11521335    -0.59200
O2007       O  0.53173744  0.68873045  0.20079991    -0.49300
O2008       O  0.52830186  0.72952715  0.13363236    -0.55600
C2009       C  0.52379820  0.67561242  0.06894660     0.84400
O2010       O  0.57443532  0.68972186  0.14671548    -0.57500
O2011       O  0.56710976  0.72779686  0.20315133    -0.60800
In2012     In  0.66578430  0.70924247  0.13119134     1.36900
C2013       C  0.71403530  0.75275657  0.12079800     0.76900
O2014       O  0.66951722  0.72576388  0.19999659    -0.61600
O2015       O  0.66379667  0.68715990  0.19655466    -0.52500
C2016       C  0.62023012  0.70776914  0.12751567     0.69500
O2017       O  0.64207265  0.72729934  0.11281225    -0.47300
C2018       C  0.65965568  0.67737010  0.06207364     0.74200
O2019       O  0.69312536  0.75197454  0.11099206    -0.59200
O2020       O  0.66505495  0.67316642  0.10158902    -0.49300
O2021       O  0.71053437  0.73069262  0.13335510    -0.55600
C2022       C  0.66684153  0.70600125  0.22136522     0.84400
O2023       O  0.62131609  0.68834927  0.14244296    -0.57500
O2024       O  0.65907853  0.69818476  0.05832518    -0.60800
In2025     In  0.78107012  0.93859475  0.12982113     1.36900
C2026       C  0.73942623  0.94273680  0.11885649     0.76900
O2027       O  0.76405446  0.92368670  0.19822813    -0.61600
O2028       O  0.80289628  0.95936304  0.19530631    -0.52500
C2029       C  0.78430120  0.89551160  0.12587859     0.69500
O2030       O  0.76347124  0.89488917  0.11546669    -0.47300
C2031       C  0.81174036  0.96521347  0.05917466     0.74200
O2032       O  0.73892764  0.92185566  0.10860282    -0.59200
O2033       O  0.81758810  0.97549350  0.09843241    -0.49300
O2034       O  0.76171491  0.96215888  0.13243006    -0.55600
C2035       C  0.78385385  0.94193373  0.21981852     0.84400
O2036       O  0.80376665  0.91831493  0.13757031    -0.56300
O2037       O  0.78977479  0.94304917  0.05637096    -0.60800
In2038     In  0.78414403  0.82559486  0.13246355     1.36900
C2039       C  0.73991001  0.77808604  0.12123095     0.76900
O2040       O  0.79253417  0.82678121  0.05887371    -0.61600
O2041       O  0.82112956  0.82828843  0.10374930    -0.52500
C2042       C  0.78522142  0.87123228  0.12601971     0.69500
O2043       O  0.76534494  0.84861876  0.11526898    -0.47300
C2044       C  0.78721428  0.82443322  0.22302694     0.74200
O2045       O  0.74203308  0.79980017  0.11097646    -0.59200
O2046       O  0.80655952  0.82917553  0.19835700    -0.49300
O2047       O  0.76108134  0.78033255  0.13501442    -0.55600
C2048       C  0.81484634  0.82964682  0.06319699     0.84400
O2049       O  0.80529707  0.87095374  0.13838685    -0.57500
O2050       O  0.76703463  0.81994297  0.20137240    -0.60800
C2051       C  0.85644260  0.96835718  0.96518984     0.85800
C2052       C  0.84515200  0.97846822  0.92970334    -0.54500
C2053       C  0.83937673  0.99619353  0.94594088     0.08700
C2054       C  0.84542862  0.50236705  0.99725238     0.19700
C2055       C  0.88078459  0.99426539  0.98499847    -0.55200
C2056       C  0.87507556  0.51217509  0.00139462     0.08800
C2057       C  0.83649825  0.95735036  0.00415717    -0.54700
C2058       C  0.83055588  0.97465324  0.02106464     0.09400
H2059       H  0.84351537  0.97331834  0.89396792     0.13900
H2060       H  0.84066085  0.51669223  0.01079210    -0.00400
H2061       H  0.90093851  0.99886998  0.98524714     0.14200
H2062       H  0.82791805  0.93722480  0.01804644     0.14000
C2063       C  0.51673895  0.62542061  0.98137337     0.85800
C2064       C  0.48993397  0.60240538  0.99926206    -0.54500
C2065       C  0.97376496  0.60989532  0.01599523     0.08700
C2066       C  0.98536344  0.64026216  0.01056006     0.19700
C2067       C  0.50856702  0.63797434  0.94421377    -0.55200
C2068       C  0.99194945  0.64550452  0.95915904     0.08800
C2069       C  0.52877935  0.64645104  0.01882280    -0.54700
C2070       C  0.51283868  0.65437041  0.03430882     0.09400
H2071       H  0.98274758  0.58147640  0.99370399     0.13900
H2072       H  0.97205230  0.64650643  0.02297045    -0.00400
H2073       H  0.51323524  0.63862327  0.90851056     0.14200
H2074       H  0.54878797  0.65467996  0.03204264     0.14000
In2075     In  0.94916717  0.65971542  0.86576551     1.36900
C2076       C  0.95573237  0.70688735  0.87883980     0.76900
O2077       O  0.95896172  0.65490314  0.93793259    -0.61600
O2078       O  0.48299267  0.65555562  0.88471082    -0.52500
C2079       C  0.90303383  0.61303784  0.86916449     0.69500
O2080       O  0.90609672  0.63427628  0.88474946    -0.47300
C2081       C  0.95192091  0.66228933  0.77556556     0.74200
O2082       O  0.93568359  0.68520680  0.89283351    -0.59200
O2083       O  0.97036300  0.66396126  0.79954585    -0.49300
O2084       O  0.97386408  0.70490304  0.86189303    -0.55600
C2085       C  0.97794157  0.65272438  0.92666749     0.84400
O2086       O  0.92386384  0.61534032  0.85421056    -0.57500
O2087       O  0.93266798  0.65952740  0.79767360    -0.60800
In2088     In  0.82952383  0.54341665  0.85567435     1.36900
C2089       C  0.87701533  0.58795673  0.86620688     0.76900
O2090       O  0.82951619  0.52941007  0.92710097    -0.61600
O2091       O  0.83354698  0.00912059  0.87185704    -0.52500
C2092       C  0.78378978  0.53847595  0.86822450     0.69500
O2093       O  0.80569195  0.55959162  0.87794907    -0.47300
C2094       C  0.82778509  0.54156017  0.76559853     0.74200
O2095       O  0.85619316  0.58534776  0.88188456    -0.59200
O2096       O  0.82432081  0.52208655  0.78929963    -0.49300
O2097       O  0.87364802  0.56756396  0.84642845    -0.55600
C2098       C  0.83336032  0.01158329  0.91434594     0.84400
O2099       O  0.78504606  0.01904863  0.85498338    -0.57500
O2100       O  0.83146915  0.56132444  0.78789379    -0.60800
In2101     In  0.95237900  0.77565607  0.63535446     1.36900
C2102       C  0.98055723  0.80927249  0.56963177     0.76900
O2103       O  0.97517292  0.75581179  0.63833134    -0.61600
O2104       O  0.93539358  0.73409199  0.61230545    -0.52500
C2105       C  0.95583012  0.77727307  0.72535177     0.69500
O2106       O  0.97480153  0.79492026  0.70113261    -0.47300
C2107       C  0.90839876  0.77608657  0.62537108     0.74200
O2108       O  0.48497502  0.81645569  0.61070193    -0.59200
O2109       O  0.90931384  0.75597493  0.61558197    -0.49300
O2110       O  0.96417331  0.78462247  0.56307026    -0.55600
C2111       C  0.95564448  0.73390590  0.62347485     0.84400
O2112       O  0.93595043  0.75938429  0.70351316    -0.57500
O2113       O  0.93015619  0.79629170  0.63869572    -0.60800
In2114     In  0.83788636  0.77265847  0.63104177     1.36900
C2115       C  0.78898335  0.72910007  0.61803322     0.76900
O2116       O  0.83781977  0.75561096  0.69971776    -0.61600
O2117       O  0.83711656  0.79090675  0.69865218    -0.52500
C2118       C  0.88362333  0.77548666  0.62423723     0.69500
O2119       O  0.86177943  0.75534613  0.61091038    -0.47300
C2120       C  0.84510209  0.81092615  0.57185566     0.74200
O2121       O  0.80967383  0.73116986  0.60292986    -0.59200
O2122       O  0.84257240  0.81189593  0.61419109    -0.49300
O2123       O  0.79299598  0.75005682  0.63669643    -0.55600
C2124       C  0.83736227  0.77323300  0.72249804     0.84400
O2125       O  0.88226271  0.79457851  0.63898176    -0.57500
O2126       O  0.84291578  0.78962458  0.55882722    -0.60800
C2127       C  0.64683046  0.51650043  0.47300043     0.85800
C2128       C  0.65768419  0.50753826  0.43453302    -0.54500
C2129       C  0.66159002  0.98762717  0.44784535     0.08700
C2130       C  0.65398658  0.97828402  0.49776855     0.19700
C2131       C  0.62131973  0.99021147  0.48817903    -0.55200
C2132       C  0.62475904  0.97005603  0.50082433     0.08800
C2133       C  0.66678161  0.52391627  0.51127619    -0.54700
C2134       C  0.66991878  0.00422132  0.52523849     0.09400
H2135       H  0.66090830  0.51472881  0.39984257     0.13900
H2136       H  0.65748298  0.96261073  0.50922021    -0.00400
H2137       H  0.60189200  0.98759922  0.48749649     0.14200
H2138       H  0.67746735  0.54362414  0.52730764     0.14000
C2139       C  0.97635639  0.85248081  0.48006216     0.85800
C2140       C  0.00316049  0.87779574  0.49371187    -0.54500
C2141       C  0.52205104  0.87300950  0.50742596     0.08700
C2142       C  0.51284646  0.84328772  0.50459389     0.19700
C2143       C  0.98417757  0.84028036  0.44175639    -0.55200
C2144       C  0.50360115  0.83573222  0.45476244     0.08800
C2145       C  0.96851974  0.83291690  0.51953396    -0.54700
C2146       C  0.98728708  0.82830320  0.53269902     0.09400
H2147       H  0.00718022  0.89794408  0.49064287     0.13900
H2148       H  0.52818275  0.83932362  0.51563886    -0.00400
H2149       H  0.97662329  0.83717017  0.40724782     0.14200
H2150       H  0.94922164  0.82327526  0.53618615     0.14000
In2151     In  0.67035425  0.93996630  0.35940548     1.36900
C2152       C  0.62182218  0.89583138  0.37009060     0.76900
O2153       O  0.67275805  0.95585940  0.42899978    -0.61600
O2154       O  0.66634810  0.97471384  0.37344273    -0.52500
C2155       C  0.71557603  0.94249673  0.37120956     0.69500
O2156       O  0.69335678  0.92241552  0.38306757    -0.47300
C2157       C  0.67245571  0.94287879  0.26993485     0.74200
O2158       O  0.64222394  0.89856572  0.38851095    -0.59200
O2159       O  0.67687192  0.96249512  0.29378744    -0.49300
O2160       O  0.62603921  0.91597410  0.34775694    -0.55600
C2161       C  0.66790369  0.97301720  0.41586559     0.84400
O2162       O  0.71498485  0.96211613  0.35616191    -0.57500
O2163       O  0.66733918  0.92228653  0.29184522    -0.60800
In2164     In  0.54958537  0.82313330  0.36622046     1.36900
C2165       C  0.59553234  0.87070112  0.37215759     0.76900
O2166       O  0.56662126  0.82538557  0.29821935    -0.61600
O2167       O  0.52718880  0.81664537  0.29993801    -0.52500
C2168       C  0.54714086  0.77713489  0.37844463     0.69500
O2169       O  0.56654111  0.79951383  0.39147917    -0.47300
C2170       C  0.51811699  0.82890337  0.42298945     0.74200
O2171       O  0.59133045  0.85021921  0.39336208    -0.59200
O2172       O  0.01530600  0.82822414  0.38049094    -0.49300
O2173       O  0.57575197  0.86736796  0.35043629    -0.55600
C2174       C  0.54647344  0.82061309  0.27601949     0.84400
O2175       O  0.52776509  0.77775062  0.36303782    -0.57500
O2176       O  0.53580185  0.82502214  0.43631937    -0.60800
C2177       C  0.86314110  0.87926359  0.52455517     0.85800
C2178       C  0.85585699  0.85704219  0.55927267    -0.54500
C2179       C  0.85103060  0.83362414  0.54130426     0.08700
C2180       C  0.85427931  0.83470467  0.48872884     0.19700
C2181       C  0.88656595  0.88273619  0.49736410    -0.55200
C2182       C  0.88286803  0.85943372  0.48087165     0.08800
C2183       C  0.84060978  0.86662190  0.48978636    -0.54700
C2184       C  0.83577476  0.84365182  0.47036385     0.09400
H2185       H  0.85484701  0.85984783  0.59546834     0.13900
H2186       H  0.85051104  0.81587474  0.47348137    -0.00400
H2187       H  0.90550064  0.90152720  0.49344984     0.14200
H2188       H  0.83001605  0.87601689  0.47951430     0.14000
C2189       C  0.51870595  0.62947357  0.52624478     0.85800
C2190       C  0.50978757  0.64144082  0.56220836    -0.54500
C2191       C  0.99383693  0.64956421  0.54568300     0.08700
C2192       C  0.98763980  0.64441931  0.49410354     0.19700
C2193       C  0.49205320  0.60647920  0.50665171    -0.55200
C2194       C  0.97590711  0.61403852  0.48926244     0.08800
C2195       C  0.53111018  0.65058471  0.48859043    -0.54700
C2196       C  0.51523728  0.65832292  0.47125959     0.09400
H2197       H  0.51305929  0.64098986  0.59824126     0.13900
H2198       H  0.97455324  0.65079850  0.48051393    -0.00400
H2199       H  0.98555182  0.58547569  0.50914925     0.14200
H2200       H  0.55109854  0.65853144  0.47584479     0.14000
In2201     In  0.94965352  0.66253006  0.63543745     1.36900
C2202       C  0.90422290  0.61591483  0.62422147     0.76900
O2203       O  0.96326881  0.66246764  0.56413946    -0.61600
O2204       O  0.98219187  0.65631604  0.61954892    -0.52500
C2205       C  0.95510136  0.70916977  0.62329807     0.69500
O2206       O  0.93449900  0.68729959  0.61168492    -0.47300
C2207       C  0.95201436  0.66302432  0.72579340     0.74200
O2208       O  0.90800930  0.63744025  0.60805084    -0.59200
O2209       O  0.97110394  0.66667599  0.70174540    -0.49300
O2210       O  0.92386535  0.61813254  0.64467496    -0.55600
C2211       C  0.97982232  0.65693423  0.57706726     0.84400
O2212       O  0.97395512  0.70755134  0.63831552    -0.57500
O2213       O  0.93234562  0.65966227  0.70371106    -0.60800
In2214     In  0.83143057  0.54535268  0.62618530     1.36900
C2215       C  0.78551483  0.54036810  0.61569763     0.76900
O2216       O  0.83280620  0.53235511  0.55465300    -0.61600
O2217       O  0.83586114  0.01150788  0.61079367    -0.52500
C2218       C  0.87870992  0.59037860  0.62142739     0.69500
O2219       O  0.85855688  0.58788473  0.60234074    -0.47300
C2220       C  0.82838989  0.54206698  0.71597501     0.74200
O2221       O  0.80697694  0.56088463  0.60226290    -0.59200
O2222       O  0.82506139  0.02287780  0.69204551    -0.49300
O2223       O  0.78717602  0.02130872  0.63021245    -0.55600
C2224       C  0.83637055  0.01435453  0.56827350     0.84400
O2225       O  0.87495640  0.56947507  0.64032758    -0.57500
O2226       O  0.83299175  0.56245184  0.69399578    -0.60800
C2227       C  0.86023230  0.97140547  0.52168887     0.85800
C2228       C  0.88439295  0.99720341  0.50143130    -0.54500
C2229       C  0.87841038  0.51468544  0.48329996     0.08700
C2230       C  0.84866681  0.50460833  0.48658899     0.19700
C2231       C  0.84859619  0.98153406  0.55574418    -0.55200
C2232       C  0.84267667  0.99897490  0.53795153     0.08800
C2233       C  0.84030001  0.95971474  0.48258906    -0.54700
C2234       C  0.83393756  0.97655399  0.46429320     0.09400
H2235       H  0.90472899  0.00240240  0.50335488     0.13900
H2236       H  0.84368889  0.51865105  0.47186509    -0.00400
H2237       H  0.84655064  0.97632871  0.59162915     0.14200
H2238       H  0.83169758  0.93935401  0.47020217     0.14000
In2239     In  0.78133564  0.93811733  0.35971978     1.36900
C2240       C  0.73971093  0.94199575  0.37110925     0.76900
O2241       O  0.79231521  0.94384711  0.43249699    -0.61600
O2242       O  0.81857172  0.97559256  0.38773964    -0.52500
C2243       C  0.78361080  0.89450362  0.36515376     0.69500
O2244       O  0.76337310  0.89450793  0.37689207    -0.47300
C2245       C  0.78387179  0.94177212  0.26967514     0.74200
O2246       O  0.73941218  0.92121953  0.38181418    -0.59200
O2247       O  0.80281490  0.95920572  0.29424107    -0.49300
O2248       O  0.76179798  0.96144567  0.35704180    -0.55600
C2249       C  0.81403881  0.96606268  0.42760754     0.84400
O2250       O  0.80291836  0.91691636  0.35147362    -0.57500
O2251       O  0.76423301  0.92325974  0.29122170    -0.60800
In2252     In  0.78354790  0.82473043  0.36329770     1.36900
C2253       C  0.73947584  0.77660704  0.37443626     0.76900
O2254       O  0.76682207  0.81971472  0.29403187    -0.61600
O2255       O  0.80643344  0.82907842  0.29825263    -0.52500
C2256       C  0.78422195  0.87006877  0.36598920     0.69500
O2257       O  0.76474957  0.84775772  0.37949744    -0.47300
C2258       C  0.81589619  0.83241303  0.43307678     0.74200
O2259       O  0.74145636  0.79808718  0.38534682    -0.59200
O2260       O  0.81896752  0.82469360  0.39504526    -0.49300
O2261       O  0.76081260  0.77933599  0.36105547    -0.55600
C2262       C  0.78712778  0.82434889  0.27301653     0.84400
O2263       O  0.80381571  0.86948385  0.35211879    -0.57500
O2264       O  0.79574695  0.83385745  0.43520381    -0.60800
In2265     In  0.71780587  0.65514631  0.62936527     1.36900
C2266       C  0.76283576  0.70350092  0.61779229     0.76900
O2267       O  0.70264266  0.65434393  0.55770689    -0.61600
O2268       O  0.67793358  0.64905320  0.61299290    -0.52500
C2269       C  0.71526018  0.60896124  0.61922481     0.69500
O2270       O  0.73509608  0.63141359  0.60714720    -0.47300
C2271       C  0.71599763  0.65511681  0.72083267     0.74200
O2272       O  0.75966278  0.68211099  0.60288570    -0.59200
O2273       O  0.70102590  0.65907759  0.69636441    -0.49300
O2274       O  0.74236366  0.70058640  0.63576878    -0.55600
C2275       C  0.68048359  0.64975658  0.57043055     0.84400
O2276       O  0.69603293  0.60980853  0.63410031    -0.57500
O2277       O  0.73150586  0.65123991  0.69867922    -0.60800
In2278     In  0.71857959  0.54118412  0.62994498     1.36900
C2279       C  0.68783729  0.01075968  0.56336788     0.76900
O2280       O  0.69584037  0.56168813  0.63142133    -0.61600
O2281       O  0.73618827  0.58449149  0.61070330    -0.52500
C2282       C  0.71582886  0.53710745  0.71946264     0.69500
O2283       O  0.69884479  0.01803061  0.69466707    -0.47300
C2284       C  0.76105660  0.53979630  0.61821993     0.74200
O2285       O  0.67962533  0.00626659  0.60386508    -0.59200
O2286       O  0.76014009  0.55979877  0.60677559    -0.49300
O2287       O  0.71212987  0.52841114  0.55832430    -0.55600
C2288       C  0.71552705  0.58430060  0.61947686     0.84400
O2289       O  0.73384853  0.55741512  0.69841881    -0.57500
O2290       O  0.73995761  0.02013303  0.63492095    -0.60800
C2291       C  0.61198599  0.62547006  0.51706061     0.85800
C2292       C  0.61250895  0.60183589  0.49858024    -0.54500
C2293       C  0.63665630  0.60810389  0.48336677     0.08700
C2294       C  0.65867496  0.63820999  0.48721578     0.19700
C2295       C  0.63406709  0.63716710  0.55393782    -0.55200
C2296       C  0.65852561  0.64376739  0.53854648     0.08800
C2297       C  0.62308053  0.64634399  0.47934899    -0.54700
C2298       C  0.64707539  0.65302256  0.46326203     0.09400
H2299       H  0.59628338  0.58115399  0.50330824     0.13900
H2300       H  0.67830728  0.64345698  0.47411945    -0.00400
H2301       H  0.63034656  0.63789090  0.58974067     0.14200
H2302       H  0.61251333  0.65519180  0.46599468     0.14000
In2303     In  0.55287821  0.71113073  0.36519083     1.36900
C2304       C  0.54824955  0.75297220  0.37734995     0.76900
O2305       O  0.56716227  0.72832317  0.29636504    -0.61600
O2306       O  0.53193335  0.68909638  0.29985870    -0.52500
C2307       C  0.59600935  0.70817458  0.36876399     0.69500
O2308       O  0.59629395  0.72865338  0.38136497    -0.47300
C2309       C  0.52589498  0.67832937  0.43420656     0.74200
O2310       O  0.56905239  0.75352972  0.38758737    -0.59200
O2311       O  0.01548477  0.67435636  0.39514637    -0.49300
O2312       O  0.52931454  0.73062528  0.36287466    -0.55600
C2313       C  0.54901964  0.70825964  0.27501968     0.84400
O2314       O  0.57359869  0.68902302  0.35508304    -0.57500
O2315       O  0.54866374  0.69948884  0.43778934    -0.60800
In2316     In  0.66523208  0.70769197  0.36156052     1.36900
C2317       C  0.71359852  0.75111623  0.37350325     0.76900
O2318       O  0.66510553  0.69694030  0.43440138    -0.61600
O2319       O  0.65775879  0.66755482  0.38556243    -0.52500
C2320       C  0.62012691  0.70716675  0.36842070     0.69500
O2321       O  0.64233257  0.72612637  0.38283655    -0.47300
C2322       C  0.66678458  0.70576214  0.27127317     0.74200
O2323       O  0.69263649  0.74988899  0.38419424    -0.59200
O2324       O  0.66476369  0.68716718  0.29587604    -0.49300
O2325       O  0.71011916  0.72948525  0.35878089    -0.55600
C2326       C  0.65876844  0.67332189  0.42701245     0.84400
O2327       O  0.62059657  0.68781638  0.35219795    -0.57500
O2328       O  0.66840578  0.72481478  0.29287733    -0.60800
C2329       C  0.53931217  0.60412792  0.50747417    -0.27000
C2330       C  0.53814729  0.62121168  0.53890464    -0.15100
C2331       C  0.56048973  0.63632390  0.56822927     0.35500
C2332       C  0.58258320  0.63424467  0.56446838    -0.26500
C2333       C  0.58440097  0.61881009  0.53036387    -0.15700
C2334       C  0.56190980  0.60354823  0.50138230     0.36600
N2335       N  0.56178398  0.58947878  0.46183954    -0.90000
H2336       H  0.52384179  0.59353001  0.48221595     0.17700
H2337       H  0.59956857  0.64738386  0.58566707     0.17700
N2338       N  0.56267896  0.65545322  0.60025214    -0.89000
H2339       H  0.56064880  0.57190069  0.47109613     0.35100
H2340       H  0.57818582  0.60196828  0.44121220     0.40200
H2341       H  0.54844844  0.64538748  0.62563849     0.39800
H2342       H  0.56051001  0.66977245  0.58361199     0.34700
C2343       C  0.94528645  0.57283848  0.44511968    -0.27000
C2344       C  0.94850253  0.59305972  0.47426954    -0.15100
C2345       C  0.92612628  0.58902870  0.49748842     0.35500
C2346       C  0.90190609  0.56389086  0.49569665    -0.26500
C2347       C  0.89989044  0.54261629  0.47139834    -0.15700
C2348       C  0.92119799  0.54767222  0.44363261     0.36600
N2349       N  0.91886370  0.52675528  0.41590233    -0.90000
H2350       H  0.96226246  0.57577229  0.42656798     0.17700
H2351       H  0.88561300  0.56029455  0.51710704     0.17700
N2352       N  0.92868221  0.60922919  0.52710597    -0.89000
H2353       H  0.93368123  0.52347297  0.42581199     0.35100
H2354       H  0.92251040  0.03356025  0.38223982     0.40200
H2355       H  0.92467376  0.60124217  0.55993496     0.39800
H2356       H  0.91424447  0.61323244  0.51805584     0.34700
C2357       C  0.88893906  0.95269882  0.54216784    -0.27000
C2358       C  0.86409904  0.95002157  0.54166815    -0.15100
C2359       C  0.84149768  0.92518181  0.55585766     0.35500
C2360       C  0.84293948  0.90254012  0.55849568    -0.26500
C2361       C  0.86636318  0.90422955  0.54598854    -0.15700
C2362       C  0.89034832  0.92998064  0.54655569     0.36600
N2363       N  0.91575449  0.93392514  0.55644766    -0.90000
H2364       H  0.90731324  0.97207438  0.53898660     0.17700
H2365       H  0.82473614  0.88307181  0.56378128     0.17700
N2366       N  0.81639702  0.92228394  0.56300664    -0.89000
H2367       H  0.92783835  0.94199836  0.52771703     0.35100
H2368       H  0.91375716  0.91589378  0.56581718     0.40200
H2369       H  0.81009746  0.91496623  0.59597327     0.39800
H2370       H  0.80252624  0.90791682  0.54027248     0.34700
C2371       C  0.93479996  0.84540812  0.43876178    -0.27000
C2372       C  0.95401239  0.85748913  0.47382737    -0.15100
C2373       C  0.94912980  0.86993659  0.50993939     0.35500
C2374       C  0.92600610  0.86996671  0.51061598    -0.26500
C2375       C  0.90682696  0.85798642  0.47617783    -0.15700
C2376       C  0.91115063  0.84551678  0.43972087     0.36600
N2377       N  0.89146658  0.83270088  0.40447225    -0.90000
H2378       H  0.93745799  0.83485209  0.41175047     0.17700
H2379       H  0.92271653  0.87893145  0.53965814     0.17700
N2380       N  0.96696633  0.88130758  0.54797132    -0.89000
H2381       H  0.89758357  0.82435628  0.38026100     0.35100
H2382       H  0.89017441  0.84757395  0.38777318     0.40200
H2383       H  0.95653494  0.87127694  0.57749201     0.39800
H2384       H  0.97321636  0.90148901  0.55070982     0.34700
C2385       C  0.57007554  0.89591581  0.49088806    -0.27000
C2386       C  0.54993343  0.89520745  0.51582335    -0.15100
C2387       C  0.55616903  0.91738864  0.54282937     0.35500
C2388       C  0.58179319  0.94082797  0.54098739    -0.26500
C2389       C  0.60130695  0.94271161  0.51196443    -0.15700
C2390       C  0.59544203  0.91937164  0.48815807     0.36600
N2391       N  0.61367607  0.91931319  0.45740428    -0.90000
H2392       H  0.56549350  0.87895278  0.46994474     0.17700
H2393       H  0.58593228  0.95824861  0.56012267     0.17700
N2394       N  0.53627069  0.91645050  0.57100520    -0.89000
H2395       H  0.63052332  0.92333452  0.47536484     0.35100
H2396       H  0.61851987  0.93389406  0.43255830     0.40200
H2397       H  0.54328321  0.92008428  0.60448547     0.39800
H2398       H  0.53397058  0.93202352  0.56094260     0.34700
C2399       C  0.63427617  0.54513277  0.50984351    -0.27000
C2400       C  0.64252786  0.53957075  0.46902868    -0.15100
C2401       C  0.64994188  0.55790189  0.43234232     0.35500
C2402       C  0.64851572  0.58075254  0.43749975    -0.26500
C2403       C  0.64145800  0.58633830  0.47935143    -0.15700
C2404       C  0.63562102  0.56880261  0.51643055     0.36600
N2405       N  0.63259703  0.57510217  0.56207676    -0.90000
H2406       H  0.62914250  0.53192330  0.53903790     0.17700
H2407       H  0.65303456  0.59418575  0.40890200     0.17700
N2408       N  0.65917432  0.55396177  0.39038224    -0.89000
H2409       H  0.61568494  0.57583064  0.56512467     0.35100
H2410       H  0.64947755  0.59364922  0.57088760     0.40200
H2411       H  0.67832137  0.57075198  0.38444482     0.39800
H2412       H  0.64671957  0.55300526  0.36436704     0.34700
C2413       C  0.91546274  0.54187424  0.04804560    -0.27000
C2414       C  0.89656373  0.53942998  0.01664675    -0.15100
C2415       C  0.90119655  0.56267071  0.99416854     0.35500
C2416       C  0.92561935  0.58725804  0.99971083    -0.26500
C2417       C  0.94575383  0.58877594  0.02655956    -0.15700
C2418       C  0.93998179  0.56634434  0.05318513     0.36600
N2419       N  0.95980007  0.56790334  0.08297390    -0.90000
H2420       H  0.91199914  0.52425257  0.06609083     0.17700
H2421       H  0.92984915  0.60425676  0.97881668     0.17700
N2422       N  0.88254148  0.56082608  0.96158872    -0.89000
H2423       H  0.96356236  0.55340472  0.07290632     0.35100
H2424       H  0.95186909  0.56293817  0.11574392     0.40200
H2425       H  0.89204507  0.56624717  0.93009378     0.39800
H2426       H  0.87773029  0.57475391  0.97018133     0.34700
C2427       C  0.83904706  0.89844248  0.93599935    -0.27000
C2428       C  0.86287040  0.90070927  0.94841550    -0.15100
C2429       C  0.88662558  0.92657463  0.94597171     0.35500
C2430       C  0.88494014  0.94921796  0.94742300    -0.26500
C2431       C  0.86002196  0.94639137  0.94740565    -0.15700
C2432       C  0.83724842  0.92097593  0.93564391     0.36600
N2433       N  0.81178176  0.91761060  0.92870181    -0.90000
H2434       H  0.82104272  0.87866493  0.93217261     0.17700
H2435       H  0.90323633  0.96877270  0.94873169     0.17700
N2436       N  0.91210044  0.93063828  0.93696755    -0.89000
H2437       H  0.79672317  0.89727446  0.92548273     0.35100
H2438       H  0.81248634  0.92649953  0.89753706     0.40200
H2439       H  0.91027447  0.91263701  0.92851996     0.39800
H2440       H  0.92417203  0.93902380  0.96572649     0.34700
C2441       C  0.56488951  0.60309309  0.99735121    -0.27000
C2442       C  0.58443335  0.61854983  0.96449126    -0.15100
C2443       C  0.57890234  0.63256443  0.93183027     0.35500
C2444       C  0.55464997  0.63110392  0.93379910    -0.26500
C2445       C  0.53627086  0.61743487  0.96931012    -0.15700
C2446       C  0.54170803  0.60274735  0.00092829     0.36600
N2447       N  0.52580880  0.58933900  0.04032951    -0.90000
H2448       H  0.56868617  0.59342411  0.02487167     0.17700
H2449       H  0.55194275  0.64348829  0.91033129     0.17700
N2450       N  0.59859466  0.65005626  0.89906324    -0.89000
H2451       H  0.50773759  0.57221277  0.03076399     0.35100
H2452       H  0.52312575  0.60237874  0.05962295     0.40200
H2453       H  0.61396218  0.66655364  0.91664226     0.39800
H2454       H  0.59088512  0.65774156  0.87621322     0.34700
C2455       C  0.93416590  0.84476879  0.05999306    -0.27000
C2456       C  0.95235235  0.85527101  0.02347194    -0.15100
C2457       C  0.94634144  0.86598920  0.98548905     0.35500
C2458       C  0.92291970  0.86547580  0.98412214    -0.26500
C2459       C  0.90466950  0.85489131  0.01983120    -0.15700
C2460       C  0.91025125  0.84442067  0.05842890     0.36600
N2461       N  0.89197292  0.83383403  0.09586056    -0.90000
H2462       H  0.93785596  0.83582358  0.08881689     0.17700
H2463       H  0.91874291  0.87313116  0.95385268     0.17700
N2464       N  0.96340831  0.87622506  0.94651230    -0.89000
H2465       H  0.89948696  0.82783902  0.12217733     0.35100
H2466       H  0.87452555  0.81644909  0.08471147     0.40200
H2467       H  0.96920764  0.89615605  0.94124584     0.39800
H2468       H  0.95251456  0.86504357  0.91812117     0.34700
C2469       C  0.56876299  0.89693961  0.00572845    -0.27000
C2470       C  0.54783054  0.89428244  0.97976407    -0.15100
C2471       C  0.55271269  0.91536914  0.95037988     0.35500
C2472       C  0.57777708  0.93964135  0.95056984    -0.26500
C2473       C  0.59809913  0.94318246  0.97974970    -0.15700
C2474       C  0.59364433  0.92127164  0.00640891     0.36600
N2475       N  0.61336469  0.92436592  0.03774979    -0.90000
H2476       H  0.56520462  0.88094993  0.02872101     0.17700
H2477       H  0.58096683  0.95619910  0.92947287     0.17700
N2478       N  0.53201709  0.91238833  0.92124055    -0.89000
H2479       H  0.60535073  0.92117411  0.07032327     0.35100
H2480       H  0.61719461  0.90949530  0.03100875     0.40200
H2481       H  0.53880383  0.91536589  0.88772437     0.39800
H2482       H  0.52873761  0.92751112  0.92907784     0.34700
C2483       C  0.63567087  0.57338863  0.97831533    -0.27000
C2484       C  0.64316680  0.58937275  0.01716203    -0.15100
C2485       C  0.65099872  0.58163403  0.05647183     0.35500
C2486       C  0.65117642  0.55797309  0.05603574    -0.26500
C2487       C  0.64275356  0.54142551  0.01719987    -0.15700
C2488       C  0.63437927  0.54933958  0.97839558     0.36600
N2489       N  0.62505210  0.53317377  0.93813665    -0.90000
H2490       H  0.62953311  0.57907379  0.94786593     0.17700
H2491       H  0.65795973  0.55282377  0.08608121     0.17700
N2492       N  0.65844503  0.59719646  0.09719115    -0.89000
H2493       H  0.60572592  0.52819061  0.93122462     0.35100
H2494       H  0.63722138  0.54470578  0.91097864     0.40200
H2495       H  0.64240635  0.59836952  0.10732730     0.39800
H2496       H  0.67442871  0.61663761  0.08963796     0.34700
loop_ 
_geom_bond_atom_site_label_1 
_geom_bond_atom_site_label_2 
_geom_bond_distance 
_geom_bond_site_symmetry_2 
_ccdc_geom_bond_type 
In1           O3   2.298       .  S
In1           O4   2.241       .  S
In1          O12   2.255       .  S
In1           O6   2.255       .  S
In1           O8   2.260       .  S
In1           O9   2.286       .  S
In1          O10   2.264       .  S
In1          O13   2.255       .  S
C2            O8   1.260       .  A
C2           O10   1.260       .  A
C2           C78   1.473       .  S
O3           C11   1.261       .  A
O4           C11   1.261       .  A
C5           O12   1.260       .  A
C5            O6   1.261       .  A
C5           C24   1.470       .  S
C7            O9   1.263       .  A
C7           O13   1.259       .  A
C7          C252   1.479       .  S
C11         C120   1.490       .  S
In14         O16   2.258       .  S
In14         O17   2.251       .  S
In14         O25   2.211       .  S
In14         O19   2.277       .  S
In14         O22   2.216       .  S
In14         O23   2.204       .  S
In14         O26   2.253       .  S
In14       O1269   2.263       .  S
C15          O23   1.257       .  A
C15        O1269   1.263       .  A
C15          C46   1.457       .  S
O16          C24   1.262       .  A
O17          C24   1.261       .  A
C18          O25   1.258       .  A
C18          O19   1.265       .  A
C18         C233   1.464       .  S
C20          O22   1.258       .  A
C20          O26   1.262       .  A
C20         C204   1.456       .  S
O21       In1262   2.263       .  S
O21        C1263   1.263       .  A
C27          C33   1.515   1_554  S
C27          C31   1.549       .  S
C27         C652   1.539   1_544  S
C27         C615   1.527       .  S
C28         C651   1.539   1_556  S
C28          H35   1.086       .  S
C28          C29   1.367       .  D
C29         C601   1.488       .  S
C29          C30   1.542       .  S
C30          C34   1.533       .  S
C30          C32   1.547   1_556  S
C30          H36   1.111       .  S
C31          H37   1.083       .  S
C31         C656   1.378   1_545  D
C32          C57   1.478       .  S
C32         C655   1.378       .  D
C33          H38   1.090       .  S
C33         C658   1.345       .  D
C34          C91   1.450       .  S
C34         C657   1.345       .  D
C39          C40   1.551       .  S
C39          C45   1.519   1_554  S
C39          C43   1.538       .  S
C39         C584   1.532       .  S
C40          H47   1.084       .  S
C40        C1289   1.382       .  D
C41          C74   1.483       .  S
C41          C42   1.548   1_554  S
C41        C1288   1.382   1_455  D
C42          C44   1.539       .  S
C42        C1294   1.533   1_455  S
C42          H48   1.111       .  S
C43          H49   1.087       .  S
C43        C1292   1.364   1_554  D
C44         C598   1.481       .  S
C44        C1291   1.364   1_556  D
C45          H50   1.089       .  S
C45          C46   1.348       .  D
C46        C1290   1.533       .  S
In51         O53   2.213       .  S
In51         O54   2.255       .  S
In51         O62   2.258       .  S
In51         O56   2.242       .  S
In51         O58   2.257       .  S
In51         O59   2.267       .  S
In51         O60   2.248       .  S
In51         O63   2.239       .  S
C52          O58   1.261       .  A
C52          O60   1.259       .  A
C52          C65   1.467       .  S
O53          C61   1.258       .  A
O54          C61   1.264       .  A
C55          O62   1.261       .  A
C55          O56   1.259       .  A
C55         C154   1.466       .  S
C57          O59   1.260       .  A
C57          O63   1.259       .  A
C61         C285   1.456       .  S
In64         O66   2.253       .  S
In64         O67   2.276       .  S
In64         O75   2.276       .  S
In64         O69   2.245       .  S
In64         O71   2.256       .  S
In64         O72   2.276       .  S
In64         O73   2.254       .  S
In64         O76   2.228       .  S
C65          O71   1.259       .  A
C65          O73   1.260       .  A
O66          C74   1.259       .  A
O67          C74   1.259       .  A
C68          O75   1.262       .  A
C68          O69   1.257       .  A
C68         C128   1.471       .  S
C70          O72   1.262       .  A
C70          O76   1.258       .  A
C70         C302   1.465       .  S
In77         O79   2.250       .  S
In77         O80   2.292       .  S
In77         O88   2.260       .  S
In77         O82   2.253       .  S
In77         O84   2.255       .  S
In77         O85   2.259       .  S
In77         O86   2.266       .  S
In77         O89   2.282       .  S
C78          O84   1.259       .  A
C78          O86   1.262       .  A
O79          C87   1.258       .  A
O80          C87   1.263       .  A
C81          O88   1.260       .  A
C81          O82   1.260       .  A
C81          C96   1.468       .  S
C83          O85   1.261       .  A
C83          O89   1.259       .  A
C83         C105   1.488       .  S
C87         C399   1.478       .  S
In90         O93   2.206       .  S
In90        O101   2.205       .  S
In90         O98   2.253       .  S
In90         O99   2.209       .  S
In90        O102   2.259       .  S
In90        O716   2.226       .  S
In90        O719   2.268       .  S
In90        O721   2.246       .  S
C91          O97   1.263       .  A
C91         O723   1.257       .  A
O92        In714   2.226       .  S
O92         C724   1.263       .  A
O93         C100   1.261       .  A
C94         O101   1.257       .  A
C94         O719   1.264       .  A
C94         C410   1.459       .  S
O95        In714   2.268       .  S
O95         C718   1.264       .  A
C96          O98   1.260       .  A
C96         O102   1.260       .  A
O97        In714   2.246       .  S
O99         C715   1.257       .  A
C100        O716   1.263       .  A
C100        C220   1.448       .  S
C103        C104   1.541       .  S
C103        C109   1.513   1_556  S
C103        C107   1.534   1_556  S
C103        C570   1.527       .  S
C104        H111   1.084       .  S
C104        C105   1.374       .  D
C105        C106   1.556   1_556  S
C106        C110   1.555       .  S
C106        C108   1.544       .  S
C106        H112   1.110       .  S
C107        H113   1.088       .  S
C107        C108   1.363       .  D
C108        C612   1.481       .  S
C109        H114   1.089       .  S
C109        C110   1.353       .  D
C110        C146   1.475       .  S
C115        C116   1.537       .  S
C115        C121   1.522   1_556  S
C115        C119   1.527       .  S
C115        C556   1.531       .  S
C116        H123   1.080   1_556  S
C116        C117   1.371   1_556  D
C117        C587   1.490       .  S
C117        C118   1.549       .  S
C118        C122   1.557       .  S
C118        C120   1.558   1_554  S
C118        H124   1.109       .  S
C119        H125   1.086       .  S
C119        C120   1.366       .  D
C121        H126   1.088       .  S
C121        C122   1.356       .  D
C122        C176   1.476       .  S
In127       O129   2.219       .  S
In127       O138   2.267       .  S
In127       O132   2.263       .  S
In127       O134   2.248       .  S
In127       O135   2.282       .  S
In127       O136   2.265       .  S
In127       O139   2.218       .  S
In127      O1378   2.284       .  S
C128        O134   1.261       .  A
C128        O136   1.261       .  A
O129        C137   1.259       .  A
O130      In1375   2.284       .  S
O130       C1385   1.263       .  A
C131        O138   1.262       .  A
C131        O132   1.263       .  A
C131        C144   1.477       .  S
C133        O135   1.266       .  A
C133        O139   1.259       .  A
C133        C441   1.470       .  S
C137       O1378   1.263       .  A
C137        C198   1.473       .  S
In140       O142   2.213       .  S
In140       O143   2.286       .  S
In140       O151   2.269       .  S
In140       O145   2.256       .  S
In140       O147   2.221       .  S
In140       O148   2.295       .  S
In140       O149   2.256       .  S
In140       O152   2.216       .  S
C141        O147   1.259       .  A
C141        O149   1.260       .  A
C141        C167   1.458       .  S
O142        C150   1.257       .  A
O143        C150   1.267       .  A
C144        O151   1.264       .  A
C144        O145   1.261       .  A
C146        O148   1.264       .  A
C146        O152   1.258       .  A
C150        C450   1.469       .  S
In153       O155   2.212       .  S
In153       O156   2.278       .  S
In153       O164   2.262       .  S
In153       O158   2.247       .  S
In153       O160   2.237       .  S
In153       O161   2.283       .  S
In153       O162   2.251       .  S
In153       O165   2.207       .  S
C154        O160   1.262       .  A
C154        O162   1.263       .  A
O155        C163   1.259       .  A
O156        C163   1.267       .  A
C157        O164   1.262       .  A
C157        O158   1.263       .  A
C157        C170   1.471       .  S
C159        O161   1.266       .  A
C159        O165   1.258       .  A
C159        C186   1.470       .  S
C163        C373   1.467       .  S
In166       O168   2.218       .  S
In166       O169   2.298       .  S
In166       O177   2.274       .  S
In166       O171   2.246       .  S
In166       O173   2.212       .  S
In166       O174   2.295       .  S
In166       O175   2.255       .  S
In166       O178   2.218       .  S
C167        O173   1.258       .  A
C167        O175   1.264       .  A
O168        C176   1.257       .  A
O169        C176   1.264       .  A
C170        O177   1.262       .  A
C170        O171   1.257       .  A
C172        O174   1.266       .  A
C172        O178   1.256       .  A
C172        C390   1.471       .  S
C179        C180   1.526       .  S
C179        C185   1.525   1_556  S
C179        C183   1.546       .  S
C179        C559   1.528       .  S
C180        H187   1.086       .  S
C180        C181   1.364       .  D
C181        C226   1.472       .  S
C181        C806   1.550       .  S
C182        C184   1.542   1_556  S
C182        C805   1.550   1_545  S
C182        C810   1.544   1_546  S
C182        H188   1.111   1_556  S
C183        H189   1.082       .  S
C183        C808   1.373   1_556  D
C184        C542   1.487       .  S
C184        C807   1.373   1_544  D
C185        H190   1.088       .  S
C185        C186   1.355       .  D
C186        C806   1.544   1_554  S
C191        C192   1.527   1_455  S
C191        C197   1.524   1_556  S
C191        C195   1.538       .  S
C191        C573   1.526       .  S
C192       H1447   1.084       .  S
C192       C1441   1.362   1_556  D
C193        C545   1.481       .  S
C193        C194   1.546       .  S
C193       C1440   1.362   1_554  D
C194        C196   1.552   1_554  S
C194       C1446   1.546       .  S
C194        H200   1.110       .  S
C195        H201   1.084       .  S
C195       C1444   1.370   1_455  D
C196        C213   1.475       .  S
C196       C1443   1.370       .  D
C197        H202   1.088       .  S
C197        C198   1.355       .  D
C198       C1442   1.546   1_455  S
H199       C1440   1.084       .  S
In203       O205   2.256       .  S
In203       O214   2.238       .  S
In203       O208   2.238       .  S
In203       O210   2.220       .  S
In203       O211   2.269       .  S
In203       O212   2.252       .  S
In203       O215   2.225       .  S
In203      O1454   2.236       .  S
C204        O210   1.258       .  A
C204        O212   1.260       .  A
O205        C213   1.258       .  A
O206      In1451   2.236       .  S
O206       C1461   1.261       .  A
C207        O214   1.261       .  A
C207        O208   1.260       .  A
C207        C217   1.458       .  S
C209        O211   1.264       .  A
C209        O215   1.258       .  A
C209        C335   1.465       .  S
C213       O1454   1.261       .  A
In216       O218   2.254       .  S
In216       O221   2.213       .  S
In216       O223   2.241       .  S
In216       O224   2.261       .  S
In216       O225   2.234       .  S
In216       O228   2.226       .  S
In216       O843   2.223       .  S
In216       O851   2.234       .  S
C217        O223   1.260       .  A
C217        O225   1.260       .  A
O218        C850   1.259       .  A
O219       In840   2.223       .  S
O219        C226   1.261       .  A
C220        O221   1.258       .  A
C220        O851   1.260       .  A
C222        O224   1.262       .  A
C222        O228   1.258       .  A
C222        C348   1.461       .  S
C226        O842   1.259       .  A
O227       In840   2.234       .  S
O227        C844   1.260       .  A
In229       O231   2.236       .  S
In229       O232   2.205       .  S
In229       O240   2.210       .  S
In229       O234   2.277       .  S
In229       O237   2.250       .  S
In229       O238   2.214       .  S
In229       O241   2.248       .  S
In229      O1484   2.246       .  S
C230        O238   1.256       .  A
C230       O1484   1.262       .  A
C230        C274   1.453       .  S
O231        C239   1.263       .  A
O232        C239   1.260       .  A
C233        O240   1.257       .  A
C233        O234   1.265       .  A
C235        O237   1.259       .  A
C235        O241   1.260       .  A
C235        C246   1.464       .  S
O236      In1477   2.246       .  S
O236       C1478   1.262       .  A
C239        C333   1.450       .  S
In242       O244   2.252       .  S
In242       O245   2.285       .  S
In242       O253   2.245       .  S
In242       O247   2.252       .  S
In242       O249   2.255       .  S
In242       O250   2.240       .  S
In242       O251   2.265       .  S
In242       O254   2.295       .  S
C243        O249   1.260       .  A
C243        O251   1.260       .  A
C243        C394   1.473       .  S
O244        C252   1.259       .  A
O245        C252   1.264       .  A
C246        O253   1.259       .  A
C246        O247   1.261       .  A
C248        O250   1.262       .  A
C248        O254   1.260       .  A
C248        C307   1.488       .  S
C255        C256   1.543       .  S
C255        C261   1.519       .  S
C255        C883   1.540   1_545  S
C255        C528   1.528       .  S
C256        H263   1.081       .  S
C256        C881   1.377   1_545  D
C257        C289   1.468       .  S
C257        C258   1.547       .  S
C257        C880   1.377       .  D
C258        C262   1.530       .  S
C258        C260   1.543       .  S
C258        H264   1.108       .  S
C259        C879   1.540       .  S
C259        H265   1.087       .  S
C259        C260   1.368       .  D
C260        C517   1.493       .  S
C261        H266   1.090       .  S
C261        C886   1.341       .  D
C262        C407   1.448       .  S
C262        C885   1.341       .  D
C267        C268   1.539       .  S
C267        C273   1.520       .  S
C267        C271   1.550       .  S
C267        C500   1.530       .  S
C268        H275   1.086       .  S
C268       C1517   1.365       .  D
C269        C514   1.479       .  S
C269        C270   1.537       .  S
C269       C1516   1.365       .  D
C270        C272   1.545       .  S
C270       C1522   1.530   1_455  S
C270        H276   1.111       .  S
C271        H277   1.084       .  S
C271       C1520   1.380       .  D
C272        C298   1.481       .  S
C272       C1519   1.380   1_455  D
C273        H278   1.089       .  S
C273        C274   1.347       .  D
C274       C1518   1.530       .  S
In279       O281   2.232       .  S
In279       O282   2.243       .  S
In279       O290   2.249       .  S
In279       O284   2.236       .  S
In279       O286   2.256       .  S
In279       O287   2.252       .  S
In279       O288   2.251       .  S
In279       O291   2.215       .  S
C280        O286   1.260       .  A
C280        O288   1.259       .  A
C280        C293   1.466       .  S
O281        C289   1.259       .  A
O282        C289   1.258       .  A
C283        O290   1.260       .  A
C283        O284   1.259       .  A
C283        C368   1.461       .  S
C285        O287   1.262       .  A
C285        O291   1.259       .  A
In292       O294   2.222       .  S
In292       O295   2.272       .  S
In292       O303   2.267       .  S
In292       O297   2.251       .  S
In292       O299   2.256       .  S
In292       O301   2.252       .  S
In292       O304   2.253       .  S
In292      O1548   2.273       .  S
C293        O299   1.260       .  A
C293        O301   1.260       .  A
O294        C302   1.258       .  A
O295        C302   1.264       .  A
C296        O303   1.261       .  A
C296        O297   1.258       .  A
C296        C432   1.471       .  S
C298        O304   1.259       .  A
C298       O1548   1.259       .  A
O300      In1540   2.273       .  S
O300       C1546   1.259       .  A
C305        C306   1.527       .  S
C305        C311   1.523       .  S
C305        C309   1.532       .  S
C305        C489   1.527       .  S
C306        H313   1.086       .  S
C306        C307   1.366       .  D
C307        C308   1.557       .  S
C308        C312   1.558       .  S
C308        C310   1.550       .  S
C308        H314   1.110       .  S
C309        H315   1.080       .  S
C309        C310   1.368       .  D
C310        C503   1.490       .  S
C311        H316   1.088       .  S
C311        C312   1.359       .  D
C312        C386   1.481       .  S
C317        C318   1.530       .  S
C317        C323   1.525       .  S
C317        C321   1.539   1_455  S
C317        C458   1.532       .  S
C318        H325   1.080       .  S
C318       C1567   1.368   1_455  D
C319        C339   1.471       .  S
C319        C320   1.553       .  S
C319       C1566   1.368       .  D
C320        C322   1.545       .  S
C320       C1572   1.545       .  S
C320        H326   1.110       .  S
C321       H1575   1.087       .  S
C321       C1570   1.363       .  D
C322        C472   1.487       .  S
C322       C1569   1.363       .  D
C323        H328   1.088       .  S
C323        C324   1.356       .  D
C324        C437   1.473       .  S
C324       C1568   1.545   1_455  S
H327       C1569   1.087       .  S
In329       O331   2.257       .  S
In329       O332   2.224       .  S
In329       O340   2.243       .  S
In329       O334   2.213       .  S
In329       O336   2.243       .  S
In329       O337   2.268       .  S
In329       O338   2.228       .  S
In329       O341   2.230       .  S
C330        O336   1.259       .  A
C330        O338   1.259       .  A
C330        C346   1.455       .  S
O331        C339   1.258       .  A
O332        C339   1.260       .  A
C333        O340   1.261       .  A
C333        O334   1.257       .  A
C335        O337   1.262       .  A
C335        O341   1.259       .  A
In342       O344   2.265       .  S
In342       O353   2.224       .  S
In342       O347   2.242       .  S
In342       O349   2.221       .  S
In342       O354   2.224       .  S
In342       O969   2.214       .  S
In342       O974   2.257       .  S
In342       O975   2.226       .  S
C343        O349   1.259       .  A
C343        O975   1.259       .  A
C343        C412   1.449       .  S
O344        C976   1.260       .  A
O345       In966   2.214       .  S
O345        C352   1.260       .  A
C346        O353   1.259       .  A
C346        O347   1.261       .  A
C348        O354   1.259       .  A
C348        O974   1.263       .  A
O350       In966   2.257       .  S
O350        C972   1.263       .  A
O351       In966   2.226       .  S
O351        C967   1.259       .  A
C352        O968   1.260       .  A
C352        C360   1.471       .  S
C355        C356   1.542       .  S
C355        C361   1.524       .  S
C355        C359   1.525       .  S
C355        C486   1.521       .  S
C356        H363   1.082       .  S
C356        C981   1.372       .  D
C357        C475   1.483       .  S
C357        C358   1.543       .  S
C357        C980   1.372   1_545  D
C358        C986   1.546   1_545  S
C358        C984   1.547   1_545  S
C358        H364   1.111       .  S
C359        H365   1.087       .  S
C359        C360   1.363       .  D
C360        C982   1.547       .  S
C361        H366   1.088       .  S
C361        C362   1.355       .  D
C362        C377   1.469       .  S
C362        C982   1.546       .  S
In367       O369   2.210       .  S
In367       O370   2.281       .  S
In367       O378   2.256       .  S
In367       O372   2.250       .  S
In367       O374   2.236       .  S
In367       O375   2.275       .  S
In367       O376   2.247       .  S
In367       O379   2.215       .  S
C368        O374   1.260       .  A
C368        O376   1.261       .  A
O369        C377   1.258       .  A
O370        C377   1.264       .  A
C371        O378   1.262       .  A
C371        O372   1.262       .  A
C371        C384   1.470       .  S
C373        O375   1.266       .  A
C373        O379   1.259       .  A
In380       O382   2.214       .  S
In380       O383   2.292       .  S
In380       O391   2.262       .  S
In380       O385   2.247       .  S
In380       O387   2.223       .  S
In380       O388   2.312       .  S
In380       O389   2.263       .  S
In380       O392   2.207       .  S
C381        O387   1.258       .  A
C381        O389   1.263       .  A
C381        C445   1.462       .  S
O382        C390   1.257       .  A
O383        C390   1.267       .  A
C384        O391   1.263       .  A
C384        O385   1.260       .  A
C386        O388   1.264       .  A
C386        O392   1.257       .  A
In393       O395   2.280       .  S
In393       O396   2.260       .  S
In393       O404   2.266       .  S
In393       O398   2.256       .  S
In393       O400   2.256       .  S
In393       O401   2.289       .  S
In393       O402   2.270       .  S
In393       O405   2.250       .  S
C394        O400   1.259       .  A
C394        O402   1.261       .  A
O395        C403   1.260       .  A
O396        C403   1.260       .  A
C397        O404   1.261       .  A
C397        O398   1.260       .  A
C397        C416   1.472       .  S
C399        O401   1.263       .  A
C399        O405   1.258       .  A
C403        C424   1.488       .  S
In406       O408   2.267       .  S
In406       O409   2.252       .  S
In406       O417   2.207       .  S
In406       O414   2.213       .  S
In406       O415   2.205       .  S
In406      O1035   2.266       .  S
In406      O1037   2.250       .  S
In406      O1042   2.226       .  S
C407        O413   1.262       .  A
C407       O1039   1.256       .  A
O408        C416   1.261       .  A
O409        C416   1.259       .  A
C410        O417   1.258       .  A
C410       O1035   1.264       .  A
O411      In1030   2.266       .  S
O411       C1034   1.264       .  A
C412        O414   1.261       .  A
C412       O1042   1.263       .  A
O413      In1030   2.250       .  S
O415       C1031   1.256       .  A
O418      In1030   2.226       .  S
O418       C1036   1.263       .  A
C419        C420   1.524       .  S
C419        C425   1.517       .  S
C419        C423   1.549       .  S
C419        C461   1.528       .  S
C420        H427   1.082       .  S
C420        C421   1.360       .  D
C421        C531   1.473       .  S
C421        C422   1.542       .  S
C422        C426   1.549       .  S
C422        C424   1.550       .  S
C422        H428   1.111       .  S
C423        H429   1.084       .  S
C423        C424   1.373       .  D
C425        H430   1.089       .  S
C425        C426   1.353       .  D
C426        C454   1.467       .  S
In431       O433   2.217       .  S
In431       O434   2.280       .  S
In431       O442   2.265       .  S
In431       O436   2.261       .  S
In431       O438   2.251       .  S
In431       O440   2.260       .  S
In431       O443   2.213       .  S
In431      O1687   2.287       .  S
C432        O438   1.262       .  A
C432        O440   1.261       .  A
O433        C441   1.259       .  A
O434        C441   1.267       .  A
C435        O442   1.262       .  A
C435        O436   1.264       .  A
C435        C448   1.477       .  S
C437        O443   1.258       .  A
C437       O1687   1.265       .  A
O439      In1679   2.287       .  S
O439       C1685   1.265       .  A
In444       O446   2.230       .  S
In444       O447   2.278       .  S
In444       O455   2.274       .  S
In444       O449   2.263       .  S
In444       O451   2.223       .  S
In444       O452   2.284       .  S
In444       O453   2.263       .  S
In444       O456   2.217       .  S
C445        O451   1.259       .  A
C445        O453   1.263       .  A
O446        C454   1.257       .  A
O447        C454   1.262       .  A
C448        O455   1.261       .  A
C448        O449   1.259       .  A
C450        O452   1.265       .  A
C450        O456   1.258       .  A
C457        C458   1.407       .  A
C457        C462   1.385       .  A
C457        H464   1.081       .  S
C458        C459   1.424       .  A
C459        C460   1.399       .  A
C459        N466   1.430       .  S
C460        C461   1.408       .  A
C460        H465   1.080       .  S
C461        C462   1.425       .  A
C462        N463   1.435       .  S
N463        H467   1.042       .  S
N463        H468   1.045       .  S
N466        H469   1.043       .  S
N466        H470   1.044       .  S
C471        C472   1.405       .  A
C471        C476   1.403       .  A
C471        H478   1.084       .  S
C472        C473   1.407       .  A
C473        C474   1.406       .  A
C473        N480   1.426       .  S
C474        C475   1.402       .  A
C474        H479   1.084       .  S
C475        C476   1.407       .  A
C476        N477   1.432       .  S
N477        H481   1.046       .  S
N477       H1106   1.045       .  S
N480        H483   1.043       .  S
N480        H484   1.046       .  S
H482       N1101   1.045       .  S
C485        C486   1.407       .  A
C485        C490   1.400       .  A
C485        H492   1.079       .  S
C486        C487   1.416       .  A
C487        C488   1.394       .  A
C487        N494   1.433       .  S
C488        C489   1.402       .  A
C488        H493   1.084       .  S
C489        C490   1.417       .  A
C490        N491   1.435       .  S
N491        H495   1.045       .  S
N491        H496   1.045       .  S
N494        H497   1.045       .  S
N494        H498   1.046       .  S
C499        C500   1.414       .  A
C499        C504   1.420       .  A
C499        H506   1.080       .  S
C500        C501   1.418       .  A
C501        C502   1.386       .  A
C501        N508   1.435       .  S
C502        C503   1.399       .  A
C502        H507   1.084       .  S
C503        C504   1.411       .  A
C504        N505   1.436       .  S
N505        H509   1.046       .  S
N505        H510   1.045       .  S
N508        H511   1.046       .  S
N508        H512   1.046       .  S
C513        C514   1.397       .  A
C513        C518   1.396       .  A
C513        H520   1.084       .  S
C514        C515   1.407       .  A
C515        C516   1.403       .  A
C515        N522   1.432       .  S
C516        C517   1.406       .  A
C516        H521   1.084       .  S
C517        C518   1.419       .  A
C518        N519   1.424       .  S
N519        H523   1.042       .  S
N519        H524   1.043       .  S
N522        H525   1.045       .  S
N522        H526   1.046       .  S
C527        C528   1.410       .  A
C527        C532   1.377       .  A
C527        H534   1.085       .  S
C528        C529   1.417       .  A
C529        C530   1.413       .  A
C529        N536   1.428       .  S
C530        C531   1.404       .  A
C530        H535   1.084       .  S
C531        C532   1.410       .  A
C532        N533   1.436       .  S
N533        H537   1.041       .  S
N533        H538   1.044       .  S
N536        H539   1.046       .  S
N536        H540   1.045       .  S
C541        C542   1.401       .  A
C541        C546   1.402       .  A
C541        H548   1.084       .  S
C542        C543   1.410   1_554  A
C543        C544   1.404       .  A
C543        N550   1.426       .  S
C544        C545   1.398   1_556  A
C544        H549   1.083       .  S
C545        C546   1.411       .  A
C546        N547   1.432       .  S
N547        H551   1.046       .  S
N547        H552   1.045       .  S
N550        H553   1.044       .  S
N550        H554   1.045       .  S
C555        C556   1.404       .  A
C555        C560   1.398       .  A
C555        H562   1.084       .  S
C556        C557   1.417       .  A
C557        C558   1.402       .  A
C557        N564   1.435       .  S
C558        C559   1.408       .  A
C558        H563   1.079       .  S
C559        C560   1.420       .  A
C560        N561   1.439       .  S
N561        H565   1.046       .  S
N561        H566   1.044       .  S
N564        H567   1.044       .  S
N564        H568   1.045       .  S
C569        C570   1.407       .  A
C569        C574   1.382   1_556  A
C569        H576   1.081   1_556  S
C570        C571   1.417       .  A
C571        C572   1.408       .  A
C571        N578   1.437       .  S
C572        C573   1.411       .  A
C572        H577   1.078       .  S
C573        C574   1.422   1_556  A
C574        N575   1.435       .  S
N575        H579   1.042       .  S
N575        H580   1.044       .  S
N578        H581   1.046       .  S
N578        H582   1.045       .  S
C583        C584   1.413       .  A
C583        C588   1.421       .  A
C583        H590   1.081       .  S
C584        C585   1.420   1_554  A
C585        C586   1.386       .  A
C585        N592   1.435       .  S
C586        C587   1.397   1_556  A
C586        H591   1.085       .  S
C587        C588   1.413       .  A
C588        N589   1.436       .  S
N589        H593   1.046       .  S
N589        H594   1.044       .  S
N592        H595   1.046       .  S
N592        H596   1.046       .  S
C597        C598   1.397   1_554  A
C597        C602   1.401       .  A
C597        H604   1.084       .  S
C598        C599   1.409       .  A
C599        C600   1.405       .  A
C599        N606   1.432       .  S
C600        C601   1.404       .  A
C600        H605   1.084       .  S
C601        C602   1.409   1_556  A
C602        N603   1.425       .  S
N603        H607   1.044       .  S
N603        H608   1.046       .  S
N606        H609   1.046       .  S
N606        H610   1.045       .  S
C611        C612   1.398   1_556  A
C611        C616   1.386       .  A
C611        H618   1.085       .  S
C612        C613   1.410       .  A
C613        C614   1.410       .  A
C613        N620   1.431       .  S
C614        C615   1.412       .  A
C614        H619   1.080       .  S
C615        C616   1.420   1_554  A
C616        N617   1.436       .  S
N617        H621   1.045       .  S
N617        H622   1.046       .  S
N620        H623   1.045       .  S
N620        H624   1.046       .  S
In625       O627   2.298       .  S
In625       O628   2.241       .  S
In625       O636   2.255       .  S
In625       O630   2.255       .  S
In625       O632   2.260       .  S
In625       O633   2.286       .  S
In625       O634   2.264       .  S
In625       O637   2.255       .  S
C626        O632   1.260       .  A
C626        O634   1.260       .  A
C626        C702   1.473       .  S
O627        C635   1.261       .  A
O628        C635   1.261       .  A
C629        O636   1.260       .  A
C629        O630   1.261       .  A
C629        C648   1.470       .  S
C631        O633   1.263       .  A
C631        O637   1.259       .  A
C631        C876   1.479       .  S
C635        C744   1.490       .  S
In638       O640   2.258       .  S
In638       O641   2.251       .  S
In638       O649   2.211       .  S
In638       O643   2.277       .  S
In638      O1893   2.263       .  S
In638       O646   2.216       .  S
In638       O647   2.204       .  S
In638       O650   2.253       .  S
C639       O1893   1.263       .  A
C639        O647   1.257       .  A
C639        C670   1.457       .  S
O640        C648   1.262       .  A
O641        C648   1.261       .  A
C642        O649   1.258       .  A
C642        O643   1.265       .  A
C642        C857   1.464       .  S
C644        O646   1.258       .  A
C644        O650   1.262       .  A
C644        C828   1.456       .  S
O645      In1886   2.263       .  S
O645       C1887   1.263       .  A
C651        C657   1.515   1_554  S
C651        C655   1.549       .  S
C651       C1239   1.527       .  S
C652        H659   1.086       .  S
C652        C653   1.367       .  D
C653       C1225   1.488       .  S
C653        C654   1.542       .  S
C654        C658   1.533   1_565  S
C654        C656   1.547   1_556  S
C654        H660   1.111       .  S
C655        H661   1.083       .  S
C656        C681   1.478       .  S
C657        H662   1.090       .  S
C658        C715   1.450       .  S
C663        C664   1.551       .  S
C663        C669   1.519   1_554  S
C663        C667   1.538       .  S
C663       C1208   1.532       .  S
C664        H671   1.084       .  S
C664       C1913   1.382       .  D
C665        C698   1.483       .  S
C665        C666   1.548   1_554  S
C665       C1912   1.382   1_455  D
C666       C1918   1.533   1_455  S
C666        C668   1.539       .  S
C666        H672   1.111       .  S
C667        H673   1.087       .  S
C667       C1916   1.364   1_554  D
C668       C1222   1.481       .  S
C668       C1915   1.364   1_556  D
C669        H674   1.089       .  S
C669        C670   1.348       .  D
C670       C1914   1.533       .  S
In675       O677   2.213       .  S
In675       O678   2.255       .  S
In675       O686   2.258       .  S
In675       O680   2.242       .  S
In675       O682   2.257       .  S
In675       O683   2.267       .  S
In675       O684   2.248       .  S
In675       O687   2.239       .  S
C676        O682   1.261       .  A
C676        O684   1.259       .  A
C676        C689   1.467       .  S
O677        C685   1.258       .  A
O678        C685   1.264       .  A
C679        O686   1.261       .  A
C679        O680   1.259       .  A
C679        C778   1.466       .  S
C681        O683   1.260       .  A
C681        O687   1.259       .  A
C685        C909   1.456       .  S
In688       O690   2.253       .  S
In688       O691   2.276       .  S
In688       O699   2.276       .  S
In688       O693   2.245       .  S
In688       O695   2.256       .  S
In688       O696   2.276       .  S
In688       O697   2.254       .  S
In688       O700   2.228       .  S
C689        O695   1.259       .  A
C689        O697   1.260       .  A
O690        C698   1.259       .  A
O691        C698   1.259       .  A
C692        O699   1.262       .  A
C692        O693   1.257       .  A
C692        C752   1.471       .  S
C694        O696   1.262       .  A
C694        O700   1.258       .  A
C694        C926   1.465       .  S
In701       O703   2.250       .  S
In701       O704   2.292       .  S
In701       O712   2.260       .  S
In701       O706   2.253       .  S
In701       O708   2.255       .  S
In701       O709   2.259       .  S
In701       O710   2.266       .  S
In701       O713   2.282       .  S
C702        O708   1.259       .  A
C702        O710   1.262       .  A
O703        C711   1.258       .  A
O704        C711   1.263       .  A
C705        O712   1.260       .  A
C705        O706   1.260       .  A
C705        C720   1.468       .  S
C707        O709   1.261       .  A
C707        O713   1.259       .  A
C707        C729   1.488       .  S
C711       C1023   1.478       .  S
In714       O717   2.206       .  S
In714       O725   2.205       .  S
In714       O722   2.253       .  S
In714       O723   2.209       .  S
In714       O726   2.259       .  S
C715        O721   1.263       .  A
O717        C724   1.261       .  A
C718        O725   1.257       .  A
C718       C1034   1.459       .  S
C720        O722   1.260       .  A
C720        O726   1.260       .  A
C724        C844   1.448       .  S
C727        C728   1.541       .  S
C727        C733   1.513   1_556  S
C727        C731   1.534   1_556  S
C727       C1194   1.527       .  S
C728        H735   1.084       .  S
C728        C729   1.374       .  D
C729        C730   1.556   1_556  S
C730        C734   1.555       .  S
C730        C732   1.544       .  S
C730        H736   1.110       .  S
C731        H737   1.088       .  S
C731        C732   1.363       .  D
C732       C1236   1.481       .  S
C733        H738   1.089       .  S
C733        C734   1.353       .  D
C734        C770   1.475       .  S
C739        C740   1.537       .  S
C739        C745   1.522   1_556  S
C739        C743   1.527       .  S
C739       C1180   1.531       .  S
C740        H747   1.080   1_556  S
C740        C741   1.371   1_556  D
C741       C1211   1.490       .  S
C741        C742   1.549       .  S
C742        C746   1.557       .  S
C742        C744   1.558   1_554  S
C742        H748   1.109       .  S
C743        H749   1.086       .  S
C743        C744   1.366       .  D
C745        H750   1.088       .  S
C745        C746   1.356       .  D
C746        C800   1.476       .  S
In751       O753   2.219       .  S
In751      O2002   2.284       .  S
In751       O762   2.267       .  S
In751       O756   2.263       .  S
In751       O758   2.248       .  S
In751       O759   2.282       .  S
In751       O760   2.265       .  S
In751       O763   2.218       .  S
C752        O758   1.261       .  A
C752        O760   1.261       .  A
O753        C761   1.259       .  A
O754      In1999   2.284       .  S
O754       C2009   1.263       .  A
C755        O762   1.262       .  A
C755        O756   1.263       .  A
C755        C768   1.477       .  S
C757        O759   1.266       .  A
C757        O763   1.259       .  A
C757       C1065   1.470       .  S
C761       O2002   1.263       .  A
C761        C822   1.473       .  S
In764       O766   2.213       .  S
In764       O767   2.286       .  S
In764       O775   2.269       .  S
In764       O769   2.256       .  S
In764       O771   2.221       .  S
In764       O772   2.295       .  S
In764       O773   2.256       .  S
In764       O776   2.216       .  S
C765        O771   1.259       .  A
C765        O773   1.260       .  A
C765        C791   1.458       .  S
O766        C774   1.257       .  A
O767        C774   1.267       .  A
C768        O775   1.264       .  A
C768        O769   1.261       .  A
C770        O772   1.264       .  A
C770        O776   1.258       .  A
C774       C1074   1.469       .  S
In777       O779   2.212       .  S
In777       O780   2.278       .  S
In777       O788   2.262       .  S
In777       O782   2.247       .  S
In777       O784   2.237       .  S
In777       O785   2.283       .  S
In777       O786   2.251       .  S
In777       O789   2.207       .  S
C778        O784   1.262       .  A
C778        O786   1.263       .  A
O779        C787   1.259       .  A
O780        C787   1.267       .  A
C781        O788   1.262       .  A
C781        O782   1.263       .  A
C781        C794   1.471       .  S
C783        O785   1.266       .  A
C783        O789   1.258       .  A
C783        C810   1.470       .  S
C787        C997   1.467       .  S
In790       O792   2.218       .  S
In790       O793   2.298       .  S
In790       O801   2.274       .  S
In790       O795   2.246       .  S
In790       O797   2.212       .  S
In790       O798   2.295       .  S
In790       O799   2.255       .  S
In790       O802   2.218       .  S
C791        O797   1.258       .  A
C791        O799   1.264       .  A
O792        C800   1.257       .  A
O793        C800   1.264       .  A
C794        O801   1.262       .  A
C794        O795   1.257       .  A
C796        O798   1.266       .  A
C796        O802   1.256       .  A
C796       C1014   1.471       .  S
C803        C804   1.526       .  S
C803        C809   1.525   1_556  S
C803        C807   1.546       .  S
C803       C1183   1.528       .  S
C804        H811   1.086       .  S
C804        C805   1.364       .  D
C805        C850   1.472   1_565  S
C806        C808   1.542   1_556  S
C806        H812   1.111   1_556  S
C807        H813   1.082       .  S
C808       C1166   1.487       .  S
C809        H814   1.088       .  S
C809        C810   1.355       .  D
C815        C816   1.527   1_455  S
C815        C821   1.524   1_556  S
C815        C819   1.538       .  S
C815       C1197   1.526       .  S
C816       H2071   1.084       .  S
C816       C2065   1.362   1_556  D
C817       C1169   1.481       .  S
C817        C818   1.546       .  S
C817       C2064   1.362   1_554  D
C818       C2070   1.546       .  S
C818        C820   1.552   1_554  S
C818        H824   1.110       .  S
C819        H825   1.084       .  S
C819       C2068   1.370   1_455  D
C820        C837   1.475       .  S
C820       C2067   1.370       .  D
C821        H826   1.088       .  S
C821        C822   1.355       .  D
C822       C2066   1.546   1_455  S
H823       C2064   1.084       .  S
In827       O829   2.256       .  S
In827      O2078   2.236       .  S
In827       O838   2.238       .  S
In827       O832   2.238       .  S
In827       O834   2.220       .  S
In827       O835   2.269       .  S
In827       O836   2.252       .  S
In827       O839   2.225       .  S
C828        O834   1.258       .  A
C828        O836   1.260       .  A
O829        C837   1.258       .  A
O830      In2075   2.236       .  S
O830       C2085   1.261       .  A
C831        O838   1.261       .  A
C831        O832   1.260       .  A
C831        C841   1.458       .  S
C833        O835   1.264       .  A
C833        O839   1.258       .  A
C833        C959   1.465       .  S
C837       O2078   1.261       .  A
In840       O842   2.254       .  S
In840       O845   2.213       .  S
In840       O847   2.241       .  S
In840       O848   2.261       .  S
In840       O849   2.234       .  S
In840       O852   2.226       .  S
C841        O847   1.260       .  A
C841        O849   1.260       .  A
O843        C850   1.261       .  A
C844        O845   1.258       .  A
C846        O848   1.262       .  A
C846        O852   1.258       .  A
C846        C972   1.461       .  S
In853       O855   2.236       .  S
In853       O856   2.205       .  S
In853       O864   2.210       .  S
In853       O858   2.277       .  S
In853      O2108   2.246       .  S
In853       O861   2.250       .  S
In853       O862   2.214       .  S
In853       O865   2.248       .  S
C854       O2108   1.262       .  A
C854        O862   1.256       .  A
C854        C898   1.453       .  S
O855        C863   1.263       .  A
O856        C863   1.260       .  A
C857        O864   1.257       .  A
C857        O858   1.265       .  A
C859        O861   1.259       .  A
C859        O865   1.260       .  A
C859        C870   1.464       .  S
O860      In2101   2.246       .  S
O860       C2102   1.262       .  A
C863        C957   1.450       .  S
In866       O868   2.252       .  S
In866       O869   2.285       .  S
In866       O877   2.245       .  S
In866       O871   2.252       .  S
In866       O873   2.255       .  S
In866       O874   2.240       .  S
In866       O875   2.265       .  S
In866       O878   2.295       .  S
C867        O873   1.260       .  A
C867        O875   1.260       .  A
C867       C1018   1.473       .  S
O868        C876   1.259       .  A
O869        C876   1.264       .  A
C870        O877   1.259       .  A
C870        O871   1.261       .  A
C872        O874   1.262       .  A
C872        O878   1.260       .  A
C872        C931   1.488       .  S
C879        C880   1.543       .  S
C879        C885   1.519       .  S
C879       C1152   1.528       .  S
C880        H887   1.081       .  S
C881        C913   1.468       .  S
C881        C882   1.547       .  S
C882        C886   1.530   1_565  S
C882        C884   1.543       .  S
C882        H888   1.108       .  S
C883        H889   1.087       .  S
C883        C884   1.368       .  D
C884       C1141   1.493       .  S
C885        H890   1.090       .  S
C886       C1031   1.448       .  S
C891        C892   1.539       .  S
C891        C897   1.520       .  S
C891        C895   1.550       .  S
C891       C1124   1.530       .  S
C892        H899   1.086       .  S
C892       C2141   1.365       .  D
C893       C1138   1.479       .  S
C893        C894   1.537       .  S
C893       C2140   1.365       .  D
C894       C2146   1.530   1_455  S
C894        C896   1.545       .  S
C894        H900   1.111       .  S
C895        H901   1.084       .  S
C895       C2144   1.380       .  D
C896        C922   1.481       .  S
C896       C2143   1.380   1_455  D
C897        H902   1.089       .  S
C897        C898   1.347       .  D
C898       C2142   1.530       .  S
In903       O905   2.232       .  S
In903       O906   2.243       .  S
In903       O914   2.249       .  S
In903       O908   2.236       .  S
In903       O910   2.256       .  S
In903       O911   2.252       .  S
In903       O912   2.251       .  S
In903       O915   2.215       .  S
C904        O910   1.260       .  A
C904        O912   1.259       .  A
C904        C917   1.466       .  S
O905        C913   1.259       .  A
O906        C913   1.258       .  A
C907        O914   1.260       .  A
C907        O908   1.259       .  A
C907        C992   1.461       .  S
C909        O911   1.262       .  A
C909        O915   1.259       .  A
In916       O918   2.222       .  S
In916       O919   2.272       .  S
In916       O927   2.267       .  S
In916       O921   2.251       .  S
In916       O923   2.256       .  S
In916      O2172   2.273       .  S
In916       O925   2.252       .  S
In916       O928   2.253       .  S
C917        O923   1.260       .  A
C917        O925   1.260       .  A
O918        C926   1.258       .  A
O919        C926   1.264       .  A
C920        O927   1.261       .  A
C920        O921   1.258       .  A
C920       C1056   1.471       .  S
C922       O2172   1.259       .  A
C922        O928   1.259       .  A
O924      In2164   2.273       .  S
O924       C2170   1.259       .  A
C929        C930   1.527       .  S
C929        C935   1.523       .  S
C929        C933   1.532       .  S
C929       C1113   1.527       .  S
C930        H937   1.086       .  S
C930        C931   1.366       .  D
C931        C932   1.557       .  S
C932        C936   1.558       .  S
C932        C934   1.550       .  S
C932        H938   1.110       .  S
C933        H939   1.080       .  S
C933        C934   1.368       .  D
C934       C1127   1.490       .  S
C935        H940   1.088       .  S
C935        C936   1.359       .  D
C936       C1010   1.481       .  S
C941        C942   1.530       .  S
C941        C947   1.525       .  S
C941        C945   1.539   1_455  S
C941       C1082   1.532       .  S
C942        H949   1.080       .  S
C942       C2191   1.368   1_455  D
C943        C963   1.471       .  S
C943        C944   1.553       .  S
C943       C2190   1.368       .  D
C944       C2196   1.545       .  S
C944        C946   1.545       .  S
C944        H950   1.110       .  S
C945       H2199   1.087       .  S
C945       C2194   1.363       .  D
C946       C1096   1.487       .  S
C946       C2193   1.363       .  D
C947        H952   1.088       .  S
C947        C948   1.356       .  D
C948       C1061   1.473       .  S
C948       C2192   1.545   1_455  S
H951       C2193   1.087       .  S
In953       O955   2.257       .  S
In953       O956   2.224       .  S
In953       O964   2.243       .  S
In953       O958   2.213       .  S
In953       O960   2.243       .  S
In953       O961   2.268       .  S
In953       O962   2.228       .  S
In953       O965   2.230       .  S
C954        O960   1.259       .  A
C954        O962   1.259       .  A
C954        C970   1.455       .  S
O955        C963   1.258       .  A
O956        C963   1.260       .  A
C957        O964   1.261       .  A
C957        O958   1.257       .  A
C959        O961   1.262       .  A
C959        O965   1.259       .  A
In966       O968   2.265       .  S
In966       O977   2.224       .  S
In966       O971   2.242       .  S
In966       O973   2.221       .  S
In966       O978   2.224       .  S
C967        O973   1.259       .  A
C967       C1036   1.449       .  S
O969        C976   1.260       .  A
C970        O977   1.259       .  A
C970        O971   1.261       .  A
C972        O978   1.259       .  A
C976        C984   1.471   1_545  S
C979        C980   1.542       .  S
C979        C985   1.524       .  S
C979        C983   1.525       .  S
C979       C1110   1.521       .  S
C980        H987   1.082   1_565  S
C981       C1099   1.483       .  S
C981        C982   1.543       .  S
C982        H988   1.111       .  S
C983        H989   1.087       .  S
C983        C984   1.363       .  D
C985        H990   1.088       .  S
C985        C986   1.355       .  D
C986       C1001   1.469       .  S
In991       O993   2.210       .  S
In991       O994   2.281       .  S
In991      O1002   2.256       .  S
In991       O996   2.250       .  S
In991       O998   2.236       .  S
In991       O999   2.275       .  S
In991      O1000   2.247       .  S
In991      O1003   2.215       .  S
C992        O998   1.260       .  A
C992       O1000   1.261       .  A
O993       C1001   1.258       .  A
O994       C1001   1.264       .  A
C995       O1002   1.262       .  A
C995        O996   1.262       .  A
C995       C1008   1.470       .  S
C997        O999   1.266       .  A
C997       O1003   1.259       .  A
In1004     O1006   2.214       .  S
In1004     O1007   2.292       .  S
In1004     O1015   2.262       .  S
In1004     O1009   2.247       .  S
In1004     O1011   2.223       .  S
In1004     O1012   2.312       .  S
In1004     O1013   2.263       .  S
In1004     O1016   2.207       .  S
C1005      O1011   1.258       .  A
C1005      O1013   1.263       .  A
C1005      C1069   1.462       .  S
O1006      C1014   1.257       .  A
O1007      C1014   1.267       .  A
C1008      O1015   1.263       .  A
C1008      O1009   1.260       .  A
C1010      O1012   1.264       .  A
C1010      O1016   1.257       .  A
In1017     O1019   2.280       .  S
In1017     O1020   2.260       .  S
In1017     O1028   2.266       .  S
In1017     O1022   2.256       .  S
In1017     O1024   2.256       .  S
In1017     O1025   2.289       .  S
In1017     O1026   2.270       .  S
In1017     O1029   2.250       .  S
C1018      O1024   1.259       .  A
C1018      O1026   1.261       .  A
O1019      C1027   1.260       .  A
O1020      C1027   1.260       .  A
C1021      O1028   1.261       .  A
C1021      O1022   1.260       .  A
C1021      C1040   1.472       .  S
C1023      O1025   1.263       .  A
C1023      O1029   1.258       .  A
C1027      C1048   1.488       .  S
In1030     O1032   2.267       .  S
In1030     O1033   2.252       .  S
In1030     O1041   2.207       .  S
In1030     O1038   2.213       .  S
In1030     O1039   2.205       .  S
C1031      O1037   1.262       .  A
O1032      C1040   1.261       .  A
O1033      C1040   1.259       .  A
C1034      O1041   1.258       .  A
C1036      O1038   1.261       .  A
C1043      C1044   1.524       .  S
C1043      C1049   1.517       .  S
C1043      C1047   1.549       .  S
C1043      C1085   1.528       .  S
C1044      H1051   1.082       .  S
C1044      C1045   1.360       .  D
C1045      C1155   1.473       .  S
C1045      C1046   1.542       .  S
C1046      C1050   1.549       .  S
C1046      C1048   1.550       .  S
C1046      H1052   1.111       .  S
C1047      H1053   1.084       .  S
C1047      C1048   1.373       .  D
C1049      H1054   1.089       .  S
C1049      C1050   1.353       .  D
C1050      C1078   1.467       .  S
In1055     O1057   2.217       .  S
In1055     O1058   2.280       .  S
In1055     O1066   2.265       .  S
In1055     O1060   2.261       .  S
In1055     O1062   2.251       .  S
In1055     O2311   2.287       .  S
In1055     O1064   2.260       .  S
In1055     O1067   2.213       .  S
C1056      O1062   1.262       .  A
C1056      O1064   1.261       .  A
O1057      C1065   1.259       .  A
O1058      C1065   1.267       .  A
C1059      O1066   1.262       .  A
C1059      O1060   1.264       .  A
C1059      C1072   1.477       .  S
C1061      O2311   1.265       .  A
C1061      O1067   1.258       .  A
O1063     In2303   2.287       .  S
O1063      C2309   1.265       .  A
In1068     O1070   2.230       .  S
In1068     O1071   2.278       .  S
In1068     O1079   2.274       .  S
In1068     O1073   2.263       .  S
In1068     O1075   2.223       .  S
In1068     O1076   2.284       .  S
In1068     O1077   2.263       .  S
In1068     O1080   2.217       .  S
C1069      O1075   1.259       .  A
C1069      O1077   1.263       .  A
O1070      C1078   1.257       .  A
O1071      C1078   1.262       .  A
C1072      O1079   1.261       .  A
C1072      O1073   1.259       .  A
C1074      O1076   1.265       .  A
C1074      O1080   1.258       .  A
C1081      C1082   1.407       .  A
C1081      C1086   1.385       .  A
C1081      H1088   1.081       .  S
C1082      C1083   1.424       .  A
C1083      C1084   1.399       .  A
C1083      N1090   1.430       .  S
C1084      C1085   1.408       .  A
C1084      H1089   1.080       .  S
C1085      C1086   1.425       .  A
C1086      N1087   1.435       .  S
N1087      H1091   1.042       .  S
N1087      H1092   1.045       .  S
N1090      H1093   1.043       .  S
N1090      H1094   1.044       .  S
C1095      C1096   1.405       .  A
C1095      C1100   1.403       .  A
C1095      H1102   1.084       .  S
C1096      C1097   1.407       .  A
C1097      C1098   1.406       .  A
C1097      N1104   1.426       .  S
C1098      C1099   1.402       .  A
C1098      H1103   1.084       .  S
C1099      C1100   1.407       .  A
C1100      N1101   1.432       .  S
N1101      H1105   1.046       .  S
N1104      H1107   1.043       .  S
N1104      H1108   1.046       .  S
C1109      C1110   1.407       .  A
C1109      C1114   1.400       .  A
C1109      H1116   1.079       .  S
C1110      C1111   1.416       .  A
C1111      C1112   1.394       .  A
C1111      N1118   1.433       .  S
C1112      C1113   1.402       .  A
C1112      H1117   1.084       .  S
C1113      C1114   1.417       .  A
C1114      N1115   1.435       .  S
N1115      H1119   1.045       .  S
N1115      H1120   1.045       .  S
N1118      H1121   1.045       .  S
N1118      H1122   1.046       .  S
C1123      C1124   1.414       .  A
C1123      C1128   1.420       .  A
C1123      H1130   1.080       .  S
C1124      C1125   1.418       .  A
C1125      C1126   1.386       .  A
C1125      N1132   1.435       .  S
C1126      C1127   1.399       .  A
C1126      H1131   1.084       .  S
C1127      C1128   1.411       .  A
C1128      N1129   1.436       .  S
N1129      H1133   1.046       .  S
N1129      H1134   1.045       .  S
N1132      H1135   1.046       .  S
N1132      H1136   1.046       .  S
C1137      C1138   1.397       .  A
C1137      C1142   1.396       .  A
C1137      H1144   1.084       .  S
C1138      C1139   1.407       .  A
C1139      C1140   1.403       .  A
C1139      N1146   1.432       .  S
C1140      C1141   1.406       .  A
C1140      H1145   1.084       .  S
C1141      C1142   1.419       .  A
C1142      N1143   1.424       .  S
N1143      H1147   1.042       .  S
N1143      H1148   1.043       .  S
N1146      H1149   1.045       .  S
N1146      H1150   1.046       .  S
C1151      C1152   1.410       .  A
C1151      C1156   1.377       .  A
C1151      H1158   1.085       .  S
C1152      C1153   1.417       .  A
C1153      C1154   1.413       .  A
C1153      N1160   1.428       .  S
C1154      C1155   1.404       .  A
C1154      H1159   1.084       .  S
C1155      C1156   1.410       .  A
C1156      N1157   1.436       .  S
N1157      H1161   1.041       .  S
N1157      H1162   1.044       .  S
N1160      H1163   1.046       .  S
N1160      H1164   1.045       .  S
C1165      C1166   1.401       .  A
C1165      C1170   1.402       .  A
C1165      H1172   1.084       .  S
C1166      C1167   1.410   1_554  A
C1167      C1168   1.404       .  A
C1167      N1174   1.426       .  S
C1168      C1169   1.398   1_556  A
C1168      H1173   1.083       .  S
C1169      C1170   1.411       .  A
C1170      N1171   1.432       .  S
N1171      H1175   1.046       .  S
N1171      H1176   1.045       .  S
N1174      H1177   1.044       .  S
N1174      H1178   1.045       .  S
C1179      C1180   1.404       .  A
C1179      C1184   1.398       .  A
C1179      H1186   1.084       .  S
C1180      C1181   1.417       .  A
C1181      C1182   1.402       .  A
C1181      N1188   1.435       .  S
C1182      C1183   1.408       .  A
C1182      H1187   1.079       .  S
C1183      C1184   1.420       .  A
C1184      N1185   1.439       .  S
N1185      H1189   1.046       .  S
N1185      H1190   1.044       .  S
N1188      H1191   1.044       .  S
N1188      H1192   1.045       .  S
C1193      C1194   1.407       .  A
C1193      C1198   1.382   1_556  A
C1193      H1200   1.081   1_556  S
C1194      C1195   1.417       .  A
C1195      C1196   1.408       .  A
C1195      N1202   1.437       .  S
C1196      C1197   1.411       .  A
C1196      H1201   1.078       .  S
C1197      C1198   1.422   1_556  A
C1198      N1199   1.435       .  S
N1199      H1203   1.042       .  S
N1199      H1204   1.044       .  S
N1202      H1205   1.046       .  S
N1202      H1206   1.045       .  S
C1207      C1208   1.413       .  A
C1207      C1212   1.421       .  A
C1207      H1214   1.081       .  S
C1208      C1209   1.420   1_554  A
C1209      C1210   1.386       .  A
C1209      N1216   1.435       .  S
C1210      C1211   1.397   1_556  A
C1210      H1215   1.085       .  S
C1211      C1212   1.413       .  A
C1212      N1213   1.436       .  S
N1213      H1217   1.046       .  S
N1213      H1218   1.044       .  S
N1216      H1219   1.046       .  S
N1216      H1220   1.046       .  S
C1221      C1222   1.397   1_554  A
C1221      C1226   1.401       .  A
C1221      H1228   1.084       .  S
C1222      C1223   1.409       .  A
C1223      C1224   1.405       .  A
C1223      N1230   1.432       .  S
C1224      C1225   1.404       .  A
C1224      H1229   1.084       .  S
C1225      C1226   1.409   1_556  A
C1226      N1227   1.425       .  S
N1227      H1231   1.044       .  S
N1227      H1232   1.046       .  S
N1230      H1233   1.046       .  S
N1230      H1234   1.045       .  S
C1235      C1236   1.398   1_556  A
C1235      C1240   1.386       .  A
C1235      H1242   1.085       .  S
C1236      C1237   1.410       .  A
C1237      C1238   1.410       .  A
C1237      N1244   1.431       .  S
C1238      C1239   1.412       .  A
C1238      H1243   1.080       .  S
C1239      C1240   1.420   1_554  A
C1240      N1241   1.436       .  S
N1241      H1245   1.045       .  S
N1241      H1246   1.046       .  S
N1244      H1247   1.045       .  S
N1244      H1248   1.046       .  S
In1249     O1251   2.298       .  S
In1249     O1252   2.241       .  S
In1249     O1260   2.255       .  S
In1249     O1254   2.255       .  S
In1249     O1256   2.260       .  S
In1249     O1257   2.286       .  S
In1249     O1258   2.264       .  S
In1249     O1261   2.255       .  S
C1250      O1256   1.260       .  A
C1250      O1258   1.260       .  A
C1250      C1326   1.473       .  S
O1251      C1259   1.261       .  A
O1252      C1259   1.261       .  A
C1253      O1260   1.260       .  A
C1253      O1254   1.261       .  A
C1253      C1272   1.470       .  S
C1255      O1257   1.263       .  A
C1255      O1261   1.259       .  A
C1255      C1500   1.479       .  S
C1259      C1368   1.490       .  S
In1262     O1264   2.258       .  S
In1262     O1265   2.251       .  S
In1262     O1273   2.211       .  S
In1262     O1267   2.277       .  S
In1262     O1270   2.216       .  S
In1262     O1271   2.204       .  S
In1262     O1274   2.253       .  S
C1263      O1271   1.257       .  A
C1263      C1294   1.457       .  S
O1264      C1272   1.262       .  A
O1265      C1272   1.261       .  A
C1266      O1273   1.258       .  A
C1266      O1267   1.265       .  A
C1266      C1481   1.464       .  S
C1268      O1270   1.258       .  A
C1268      O1274   1.262       .  A
C1268      C1452   1.456       .  S
C1275      C1900   1.539   1_544  S
C1275      C1281   1.515   1_554  S
C1275      C1279   1.549       .  S
C1275      C1863   1.527       .  S
C1276      C1899   1.539   1_556  S
C1276      H1283   1.086       .  S
C1276      C1277   1.367       .  D
C1277      C1849   1.488       .  S
C1277      C1278   1.542       .  S
C1278      C1282   1.533       .  S
C1278      C1280   1.547   1_556  S
C1278      H1284   1.111       .  S
C1279      H1285   1.083       .  S
C1279      C1904   1.378   1_545  D
C1280      C1305   1.478       .  S
C1280      C1903   1.378       .  D
C1281      H1286   1.090       .  S
C1281      C1906   1.345       .  D
C1282      C1339   1.450       .  S
C1282      C1905   1.345       .  D
C1287      C1288   1.551       .  S
C1287      C1293   1.519   1_554  S
C1287      C1291   1.538   1_655  S
C1287      C1832   1.532       .  S
C1288      H1295   1.084       .  S
C1289      C1322   1.483       .  S
C1289      C1290   1.548   1_554  S
C1290      C1292   1.539       .  S
C1290      H1296   1.111       .  S
C1291      H1297   1.087       .  S
C1292      C1846   1.481       .  S
C1293      H1298   1.089       .  S
C1293      C1294   1.348       .  D
In1299     O1301   2.213       .  S
In1299     O1302   2.255       .  S
In1299     O1310   2.258       .  S
In1299     O1304   2.242       .  S
In1299     O1306   2.257       .  S
In1299     O1307   2.267       .  S
In1299     O1308   2.248       .  S
In1299     O1311   2.239       .  S
C1300      O1306   1.261       .  A
C1300      O1308   1.259       .  A
C1300      C1313   1.467       .  S
O1301      C1309   1.258       .  A
O1302      C1309   1.264       .  A
C1303      O1310   1.261       .  A
C1303      O1304   1.259       .  A
C1303      C1402   1.466       .  S
C1305      O1307   1.260       .  A
C1305      O1311   1.259       .  A
C1309      C1533   1.456       .  S
In1312     O1314   2.253       .  S
In1312     O1315   2.276       .  S
In1312     O1323   2.276       .  S
In1312     O1317   2.245       .  S
In1312     O1319   2.256       .  S
In1312     O1320   2.276       .  S
In1312     O1321   2.254       .  S
In1312     O1324   2.228       .  S
C1313      O1319   1.259       .  A
C1313      O1321   1.260       .  A
O1314      C1322   1.259       .  A
O1315      C1322   1.259       .  A
C1316      O1323   1.262       .  A
C1316      O1317   1.257       .  A
C1316      C1376   1.471       .  S
C1318      O1320   1.262       .  A
C1318      O1324   1.258       .  A
C1318      C1550   1.465       .  S
In1325     O1327   2.250       .  S
In1325     O1328   2.292       .  S
In1325     O1336   2.260       .  S
In1325     O1330   2.253       .  S
In1325     O1332   2.255       .  S
In1325     O1333   2.259       .  S
In1325     O1334   2.266       .  S
In1325     O1337   2.282       .  S
C1326      O1332   1.259       .  A
C1326      O1334   1.262       .  A
O1327      C1335   1.258       .  A
O1328      C1335   1.263       .  A
C1329      O1336   1.260       .  A
C1329      O1330   1.260       .  A
C1329      C1344   1.468       .  S
C1331      O1333   1.261       .  A
C1331      O1337   1.259       .  A
C1331      C1353   1.488       .  S
C1335      C1647   1.478       .  S
In1338     O1964   2.226       .  S
In1338     O1341   2.206       .  S
In1338     O1349   2.205       .  S
In1338     O1967   2.268       .  S
In1338     O1969   2.246       .  S
In1338     O1346   2.253       .  S
In1338     O1347   2.209       .  S
In1338     O1350   2.259       .  S
C1339      O1345   1.263       .  A
C1339      O1971   1.257       .  A
O1340     In1962   2.226       .  S
O1340      C1972   1.263       .  A
O1341      C1348   1.261       .  A
C1342      O1349   1.257       .  A
C1342      O1967   1.264       .  A
C1342      C1658   1.459       .  S
O1343     In1962   2.268       .  S
O1343      C1966   1.264       .  A
C1344      O1346   1.260       .  A
C1344      O1350   1.260       .  A
O1345     In1962   2.246       .  S
O1347      C1963   1.257       .  A
C1348      O1964   1.263       .  A
C1348      C1468   1.448       .  S
C1351      C1352   1.541       .  S
C1351      C1357   1.513   1_556  S
C1351      C1355   1.534   1_556  S
C1351      C1818   1.527       .  S
C1352      H1359   1.084       .  S
C1352      C1353   1.374       .  D
C1353      C1354   1.556   1_556  S
C1354      C1358   1.555       .  S
C1354      C1356   1.544       .  S
C1354      H1360   1.110       .  S
C1355      H1361   1.088       .  S
C1355      C1356   1.363       .  D
C1356      C1860   1.481       .  S
C1357      H1362   1.089       .  S
C1357      C1358   1.353       .  D
C1358      C1394   1.475       .  S
C1363      C1364   1.537       .  S
C1363      C1369   1.522   1_556  S
C1363      C1367   1.527       .  S
C1363      C1804   1.531       .  S
C1364      H1371   1.080   1_556  S
C1364      C1365   1.371   1_556  D
C1365      C1835   1.490       .  S
C1365      C1366   1.549       .  S
C1366      C1370   1.557       .  S
C1366      C1368   1.558   1_554  S
C1366      H1372   1.109       .  S
C1367      H1373   1.086       .  S
C1367      C1368   1.366       .  D
C1369      H1374   1.088       .  S
C1369      C1370   1.356       .  D
C1370      C1424   1.476       .  S
In1375     O1377   2.219       .  S
In1375     O1386   2.267       .  S
In1375     O1380   2.263       .  S
In1375     O1382   2.248       .  S
In1375     O1383   2.282       .  S
In1375     O1384   2.265       .  S
In1375     O1387   2.218       .  S
C1376      O1382   1.261       .  A
C1376      O1384   1.261       .  A
O1377      C1385   1.259       .  A
C1379      O1386   1.262       .  A
C1379      O1380   1.263       .  A
C1379      C1392   1.477       .  S
C1381      O1383   1.266       .  A
C1381      O1387   1.259       .  A
C1381      C1689   1.470       .  S
C1385      C1446   1.473       .  S
In1388     O1390   2.213       .  S
In1388     O1391   2.286       .  S
In1388     O1399   2.269       .  S
In1388     O1393   2.256       .  S
In1388     O1395   2.221       .  S
In1388     O1396   2.295       .  S
In1388     O1397   2.256       .  S
In1388     O1400   2.216       .  S
C1389      O1395   1.259       .  A
C1389      O1397   1.260       .  A
C1389      C1415   1.458       .  S
O1390      C1398   1.257       .  A
O1391      C1398   1.267       .  A
C1392      O1399   1.264       .  A
C1392      O1393   1.261       .  A
C1394      O1396   1.264       .  A
C1394      O1400   1.258       .  A
C1398      C1698   1.469       .  S
In1401     O1403   2.212       .  S
In1401     O1404   2.278       .  S
In1401     O1412   2.262       .  S
In1401     O1406   2.247       .  S
In1401     O1408   2.237       .  S
In1401     O1409   2.283       .  S
In1401     O1410   2.251       .  S
In1401     O1413   2.207       .  S
C1402      O1408   1.262       .  A
C1402      O1410   1.263       .  A
O1403      C1411   1.259       .  A
O1404      C1411   1.267       .  A
C1405      O1412   1.262       .  A
C1405      O1406   1.263       .  A
C1405      C1418   1.471       .  S
C1407      O1409   1.266       .  A
C1407      O1413   1.258       .  A
C1407      C1434   1.470       .  S
C1411      C1621   1.467       .  S
In1414     O1416   2.218       .  S
In1414     O1417   2.298       .  S
In1414     O1425   2.274       .  S
In1414     O1419   2.246       .  S
In1414     O1421   2.212       .  S
In1414     O1422   2.295       .  S
In1414     O1423   2.255       .  S
In1414     O1426   2.218       .  S
C1415      O1421   1.258       .  A
C1415      O1423   1.264       .  A
O1416      C1424   1.257       .  A
O1417      C1424   1.264       .  A
C1418      O1425   1.262       .  A
C1418      O1419   1.257       .  A
C1420      O1422   1.266       .  A
C1420      O1426   1.256       .  A
C1420      C1638   1.471       .  S
C1427      C1428   1.526       .  S
C1427      C1433   1.525   1_556  S
C1427      C1431   1.546       .  S
C1427      C1807   1.528       .  S
C1428      H1435   1.086       .  S
C1428      C1429   1.364       .  D
C1429      C1474   1.472       .  S
C1429      C2054   1.550       .  S
C1430      C2053   1.550   1_545  S
C1430      C2058   1.544   1_546  S
C1430      C1432   1.542   1_556  S
C1430      H1436   1.111   1_556  S
C1431      H1437   1.082       .  S
C1431      C2056   1.373   1_556  D
C1432      C1790   1.487       .  S
C1432      C2055   1.373   1_544  D
C1433      H1438   1.088       .  S
C1433      C1434   1.355       .  D
C1434      C2054   1.544   1_554  S
C1439      C1440   1.527       .  S
C1439      C1445   1.524   1_556  S
C1439      C1443   1.538       .  S
C1439      C1821   1.526       .  S
C1441      C1793   1.481       .  S
C1441      C1442   1.546       .  S
C1442      C1444   1.552   1_554  S
C1442      H1448   1.110       .  S
C1443      H1449   1.084       .  S
C1444      C1461   1.475       .  S
C1445      H1450   1.088       .  S
C1445      C1446   1.355       .  D
In1451     O1453   2.256       .  S
In1451     O1462   2.238       .  S
In1451     O1456   2.238       .  S
In1451     O1458   2.220       .  S
In1451     O1459   2.269       .  S
In1451     O1460   2.252       .  S
In1451     O1463   2.225       .  S
C1452      O1458   1.258       .  A
C1452      O1460   1.260       .  A
O1453      C1461   1.258       .  A
C1455      O1462   1.261       .  A
C1455      O1456   1.260       .  A
C1455      C1465   1.458       .  S
C1457      O1459   1.264       .  A
C1457      O1463   1.258       .  A
C1457      C1583   1.465       .  S
In1464     O1466   2.254       .  S
In1464     O2091   2.223       .  S
In1464     O2099   2.234       .  S
In1464     O1469   2.213       .  S
In1464     O1471   2.241       .  S
In1464     O1472   2.261       .  S
In1464     O1473   2.234       .  S
In1464     O1476   2.226       .  S
C1465      O1471   1.260       .  A
C1465      O1473   1.260       .  A
O1466      C2098   1.259       .  A
O1467     In2088   2.223       .  S
O1467      C1474   1.261       .  A
C1468      O2099   1.260       .  A
C1468      O1469   1.258       .  A
C1470      O1472   1.262       .  A
C1470      O1476   1.258       .  A
C1470      C1596   1.461       .  S
C1474      O2090   1.259       .  A
O1475     In2088   2.234       .  S
O1475      C2092   1.260       .  A
In1477     O1479   2.236       .  S
In1477     O1480   2.205       .  S
In1477     O1488   2.210       .  S
In1477     O1482   2.277       .  S
In1477     O1485   2.250       .  S
In1477     O1486   2.214       .  S
In1477     O1489   2.248       .  S
C1478      O1486   1.256       .  A
C1478      C1522   1.453       .  S
O1479      C1487   1.263       .  A
O1480      C1487   1.260       .  A
C1481      O1488   1.257       .  A
C1481      O1482   1.265       .  A
C1483      O1485   1.259       .  A
C1483      O1489   1.260       .  A
C1483      C1494   1.464       .  S
C1487      C1581   1.450       .  S
In1490     O1492   2.252       .  S
In1490     O1493   2.285       .  S
In1490     O1501   2.245       .  S
In1490     O1495   2.252       .  S
In1490     O1497   2.255       .  S
In1490     O1498   2.240       .  S
In1490     O1499   2.265       .  S
In1490     O1502   2.295       .  S
C1491      O1497   1.260       .  A
C1491      O1499   1.260       .  A
C1491      C1642   1.473       .  S
O1492      C1500   1.259       .  A
O1493      C1500   1.264       .  A
C1494      O1501   1.259       .  A
C1494      O1495   1.261       .  A
C1496      O1498   1.262       .  A
C1496      O1502   1.260       .  A
C1496      C1555   1.488       .  S
C1503      C1504   1.543       .  S
C1503      C1509   1.519       .  S
C1503      C2131   1.540   1_545  S
C1503      C1776   1.528       .  S
C1504      H1511   1.081       .  S
C1504      C2129   1.377   1_545  D
C1505      C1537   1.468       .  S
C1505      C1506   1.547       .  S
C1505      C2128   1.377       .  D
C1506      C1510   1.530       .  S
C1506      C1508   1.543       .  S
C1506      H1512   1.108       .  S
C1507      C2127   1.540       .  S
C1507      H1513   1.087       .  S
C1507      C1508   1.368       .  D
C1508      C1765   1.493       .  S
C1509      H1514   1.090       .  S
C1509      C2134   1.341       .  D
C1510      C1655   1.448       .  S
C1510      C2133   1.341       .  D
C1515      C1516   1.539   1_655  S
C1515      C1521   1.520       .  S
C1515      C1519   1.550       .  S
C1515      C1748   1.530       .  S
C1516      H1523   1.086       .  S
C1517      C1762   1.479       .  S
C1517      C1518   1.537       .  S
C1518      C1520   1.545       .  S
C1518      H1524   1.111       .  S
C1519      H1525   1.084       .  S
C1520      C1546   1.481       .  S
C1521      H1526   1.089       .  S
C1521      C1522   1.347       .  D
In1527     O1529   2.232       .  S
In1527     O1530   2.243       .  S
In1527     O1538   2.249       .  S
In1527     O1532   2.236       .  S
In1527     O1534   2.256       .  S
In1527     O1535   2.252       .  S
In1527     O1536   2.251       .  S
In1527     O1539   2.215       .  S
C1528      O1534   1.260       .  A
C1528      O1536   1.259       .  A
C1528      C1541   1.466       .  S
O1529      C1537   1.259       .  A
O1530      C1537   1.258       .  A
C1531      O1538   1.260       .  A
C1531      O1532   1.259       .  A
C1531      C1616   1.461       .  S
C1533      O1535   1.262       .  A
C1533      O1539   1.259       .  A
In1540     O1542   2.222       .  S
In1540     O1543   2.272       .  S
In1540     O1551   2.267       .  S
In1540     O1545   2.251       .  S
In1540     O1547   2.256       .  S
In1540     O1549   2.252       .  S
In1540     O1552   2.253       .  S
C1541      O1547   1.260       .  A
C1541      O1549   1.260       .  A
O1542      C1550   1.258       .  A
O1543      C1550   1.264       .  A
C1544      O1551   1.261       .  A
C1544      O1545   1.258       .  A
C1544      C1680   1.471       .  S
C1546      O1552   1.259       .  A
C1553      C1554   1.527       .  S
C1553      C1559   1.523       .  S
C1553      C1557   1.532       .  S
C1553      C1737   1.527       .  S
C1554      H1561   1.086       .  S
C1554      C1555   1.366       .  D
C1555      C1556   1.557       .  S
C1556      C1560   1.558       .  S
C1556      C1558   1.550       .  S
C1556      H1562   1.110       .  S
C1557      H1563   1.080       .  S
C1557      C1558   1.368       .  D
C1558      C1751   1.490       .  S
C1559      H1564   1.088       .  S
C1559      C1560   1.359       .  D
C1560      C1634   1.481       .  S
C1565      C1566   1.530       .  S
C1565      C1571   1.525       .  S
C1565      C1569   1.539       .  S
C1565      C1706   1.532       .  S
C1566      H1573   1.080       .  S
C1567      C1587   1.471       .  S
C1567      C1568   1.553       .  S
C1568      C1570   1.545       .  S
C1568      H1574   1.110       .  S
C1570      C1720   1.487       .  S
C1571      H1576   1.088       .  S
C1571      C1572   1.356       .  D
C1572      C1685   1.473       .  S
In1577     O1579   2.257       .  S
In1577     O1580   2.224       .  S
In1577     O1588   2.243       .  S
In1577     O1582   2.213       .  S
In1577     O1584   2.243       .  S
In1577     O1585   2.268       .  S
In1577     O1586   2.228       .  S
In1577     O1589   2.230       .  S
C1578      O1584   1.259       .  A
C1578      O1586   1.259       .  A
C1578      C1594   1.455       .  S
O1579      C1587   1.258       .  A
O1580      C1587   1.260       .  A
C1581      O1588   1.261       .  A
C1581      O1582   1.257       .  A
C1583      O1585   1.262       .  A
C1583      O1589   1.259       .  A
In1590     O1592   2.265       .  S
In1590     O2217   2.214       .  S
In1590     O1601   2.224       .  S
In1590     O1595   2.242       .  S
In1590     O1597   2.221       .  S
In1590     O2222   2.257       .  S
In1590     O2223   2.226       .  S
In1590     O1602   2.224       .  S
C1591      O1597   1.259       .  A
C1591      O2223   1.259       .  A
C1591      C1660   1.449       .  S
O1592      C2224   1.260       .  A
O1593     In2214   2.214       .  S
O1593      C1600   1.260       .  A
C1594      O1601   1.259       .  A
C1594      O1595   1.261       .  A
C1596      O2222   1.263       .  A
C1596      O1602   1.259       .  A
O1598     In2214   2.257       .  S
O1598      C2220   1.263       .  A
O1599     In2214   2.226       .  S
O1599      C2215   1.259       .  A
C1600      O2216   1.260       .  A
C1600      C1608   1.471       .  S
C1603      C1604   1.542       .  S
C1603      C1609   1.524       .  S
C1603      C1607   1.525       .  S
C1603      C1734   1.521       .  S
C1604      H1611   1.082       .  S
C1604      C2229   1.372       .  D
C1605      C1723   1.483       .  S
C1605      C1606   1.543       .  S
C1605      C2228   1.372   1_545  D
C1606      C2234   1.546   1_545  S
C1606      C2232   1.547   1_545  S
C1606      H1612   1.111       .  S
C1607      H1613   1.087       .  S
C1607      C1608   1.363       .  D
C1608      C2230   1.547       .  S
C1609      H1614   1.088       .  S
C1609      C1610   1.355       .  D
C1610      C1625   1.469       .  S
C1610      C2230   1.546       .  S
In1615     O1617   2.210       .  S
In1615     O1618   2.281       .  S
In1615     O1626   2.256       .  S
In1615     O1620   2.250       .  S
In1615     O1622   2.236       .  S
In1615     O1623   2.275       .  S
In1615     O1624   2.247       .  S
In1615     O1627   2.215       .  S
C1616      O1622   1.260       .  A
C1616      O1624   1.261       .  A
O1617      C1625   1.258       .  A
O1618      C1625   1.264       .  A
C1619      O1626   1.262       .  A
C1619      O1620   1.262       .  A
C1619      C1632   1.470       .  S
C1621      O1623   1.266       .  A
C1621      O1627   1.259       .  A
In1628     O1630   2.214       .  S
In1628     O1631   2.292       .  S
In1628     O1639   2.262       .  S
In1628     O1633   2.247       .  S
In1628     O1635   2.223       .  S
In1628     O1636   2.312       .  S
In1628     O1637   2.263       .  S
In1628     O1640   2.207       .  S
C1629      O1635   1.258       .  A
C1629      O1637   1.263       .  A
C1629      C1693   1.462       .  S
O1630      C1638   1.257       .  A
O1631      C1638   1.267       .  A
C1632      O1639   1.263       .  A
C1632      O1633   1.260       .  A
C1634      O1636   1.264       .  A
C1634      O1640   1.257       .  A
In1641     O1643   2.280       .  S
In1641     O1644   2.260       .  S
In1641     O1652   2.266       .  S
In1641     O1646   2.256       .  S
In1641     O1648   2.256       .  S
In1641     O1649   2.289       .  S
In1641     O1650   2.270       .  S
In1641     O1653   2.250       .  S
C1642      O1648   1.259       .  A
C1642      O1650   1.261       .  A
O1643      C1651   1.260       .  A
O1644      C1651   1.260       .  A
C1645      O1652   1.261       .  A
C1645      O1646   1.260       .  A
C1645      C1664   1.472       .  S
C1647      O1649   1.263       .  A
C1647      O1653   1.258       .  A
C1651      C1672   1.488       .  S
In1654     O1656   2.267       .  S
In1654     O1657   2.252       .  S
In1654     O1665   2.207       .  S
In1654     O2283   2.266       .  S
In1654     O2285   2.250       .  S
In1654     O1662   2.213       .  S
In1654     O1663   2.205       .  S
In1654     O2290   2.226       .  S
C1655      O1661   1.262       .  A
C1655      O2287   1.256       .  A
O1656      C1664   1.261       .  A
O1657      C1664   1.259       .  A
C1658      O1665   1.258       .  A
C1658      O2283   1.264       .  A
O1659     In2278   2.266       .  S
O1659      C2282   1.264       .  A
C1660      O1662   1.261       .  A
C1660      O2290   1.263       .  A
O1661     In2278   2.250       .  S
O1663      C2279   1.256       .  A
O1666     In2278   2.226       .  S
O1666      C2284   1.263       .  A
C1667      C1668   1.524       .  S
C1667      C1673   1.517       .  S
C1667      C1671   1.549       .  S
C1667      C1709   1.528       .  S
C1668      H1675   1.082       .  S
C1668      C1669   1.360       .  D
C1669      C1779   1.473       .  S
C1669      C1670   1.542       .  S
C1670      C1674   1.549       .  S
C1670      C1672   1.550       .  S
C1670      H1676   1.111       .  S
C1671      H1677   1.084       .  S
C1671      C1672   1.373       .  D
C1673      H1678   1.089       .  S
C1673      C1674   1.353       .  D
C1674      C1702   1.467       .  S
In1679     O1681   2.217       .  S
In1679     O1682   2.280       .  S
In1679     O1690   2.265       .  S
In1679     O1684   2.261       .  S
In1679     O1686   2.251       .  S
In1679     O1688   2.260       .  S
In1679     O1691   2.213       .  S
C1680      O1686   1.262       .  A
C1680      O1688   1.261       .  A
O1681      C1689   1.259       .  A
O1682      C1689   1.267       .  A
C1683      O1690   1.262       .  A
C1683      O1684   1.264       .  A
C1683      C1696   1.477       .  S
C1685      O1691   1.258       .  A
In1692     O1694   2.230       .  S
In1692     O1695   2.278       .  S
In1692     O1703   2.274       .  S
In1692     O1697   2.263       .  S
In1692     O1699   2.223       .  S
In1692     O1700   2.284       .  S
In1692     O1701   2.263       .  S
In1692     O1704   2.217       .  S
C1693      O1699   1.259       .  A
C1693      O1701   1.263       .  A
O1694      C1702   1.257       .  A
O1695      C1702   1.262       .  A
C1696      O1703   1.261       .  A
C1696      O1697   1.259       .  A
C1698      O1700   1.265       .  A
C1698      O1704   1.258       .  A
C1705      C1706   1.407       .  A
C1705      C1710   1.385       .  A
C1705      H1712   1.081       .  S
C1706      C1707   1.424       .  A
C1707      C1708   1.399       .  A
C1707      N1714   1.430       .  S
C1708      C1709   1.408       .  A
C1708      H1713   1.080       .  S
C1709      C1710   1.425       .  A
C1710      N1711   1.435       .  S
N1711      H1715   1.042       .  S
N1711      H1716   1.045       .  S
N1714      H1717   1.043       .  S
N1714      H1718   1.044       .  S
C1719      C1720   1.405       .  A
C1719      C1724   1.403       .  A
C1719      H1726   1.084       .  S
C1720      C1721   1.407       .  A
C1721      C1722   1.406       .  A
C1721      N1728   1.426       .  S
C1722      C1723   1.402       .  A
C1722      H1727   1.084       .  S
C1723      C1724   1.407       .  A
C1724      N1725   1.432       .  S
N1725      H1729   1.046       .  S
N1725      H2354   1.045       .  S
N1728      H1731   1.043       .  S
N1728      H1732   1.046       .  S
H1730      N2349   1.045       .  S
C1733      C1734   1.407       .  A
C1733      C1738   1.400       .  A
C1733      H1740   1.079       .  S
C1734      C1735   1.416       .  A
C1735      C1736   1.394       .  A
C1735      N1742   1.433       .  S
C1736      C1737   1.402       .  A
C1736      H1741   1.084       .  S
C1737      C1738   1.417       .  A
C1738      N1739   1.435       .  S
N1739      H1743   1.045       .  S
N1739      H1744   1.045       .  S
N1742      H1745   1.045       .  S
N1742      H1746   1.046       .  S
C1747      C1748   1.414       .  A
C1747      C1752   1.420       .  A
C1747      H1754   1.080       .  S
C1748      C1749   1.418       .  A
C1749      C1750   1.386       .  A
C1749      N1756   1.435       .  S
C1750      C1751   1.399       .  A
C1750      H1755   1.084       .  S
C1751      C1752   1.411       .  A
C1752      N1753   1.436       .  S
N1753      H1757   1.046       .  S
N1753      H1758   1.045       .  S
N1756      H1759   1.046       .  S
N1756      H1760   1.046       .  S
C1761      C1762   1.397       .  A
C1761      C1766   1.396       .  A
C1761      H1768   1.084       .  S
C1762      C1763   1.407       .  A
C1763      C1764   1.403       .  A
C1763      N1770   1.432       .  S
C1764      C1765   1.406       .  A
C1764      H1769   1.084       .  S
C1765      C1766   1.419       .  A
C1766      N1767   1.424       .  S
N1767      H1771   1.042       .  S
N1767      H1772   1.043       .  S
N1770      H1773   1.045       .  S
N1770      H1774   1.046       .  S
C1775      C1776   1.410       .  A
C1775      C1780   1.377       .  A
C1775      H1782   1.085       .  S
C1776      C1777   1.417       .  A
C1777      C1778   1.413       .  A
C1777      N1784   1.428       .  S
C1778      C1779   1.404       .  A
C1778      H1783   1.084       .  S
C1779      C1780   1.410       .  A
C1780      N1781   1.436       .  S
N1781      H1785   1.041       .  S
N1781      H1786   1.044       .  S
N1784      H1787   1.046       .  S
N1784      H1788   1.045       .  S
C1789      C1790   1.401       .  A
C1789      C1794   1.402       .  A
C1789      H1796   1.084       .  S
C1790      C1791   1.410   1_554  A
C1791      C1792   1.404       .  A
C1791      N1798   1.426       .  S
C1792      C1793   1.398   1_556  A
C1792      H1797   1.083       .  S
C1793      C1794   1.411       .  A
C1794      N1795   1.432       .  S
N1795      H1799   1.046       .  S
N1795      H1800   1.045       .  S
N1798      H1801   1.044       .  S
N1798      H1802   1.045       .  S
C1803      C1804   1.404       .  A
C1803      C1808   1.398       .  A
C1803      H1810   1.084       .  S
C1804      C1805   1.417       .  A
C1805      C1806   1.402       .  A
C1805      N1812   1.435       .  S
C1806      C1807   1.408       .  A
C1806      H1811   1.079       .  S
C1807      C1808   1.420       .  A
C1808      N1809   1.439       .  S
N1809      H1813   1.046       .  S
N1809      H1814   1.044       .  S
N1812      H1815   1.044       .  S
N1812      H1816   1.045       .  S
C1817      C1818   1.407       .  A
C1817      C1822   1.382   1_556  A
C1817      H1824   1.081   1_556  S
C1818      C1819   1.417       .  A
C1819      C1820   1.408       .  A
C1819      N1826   1.437       .  S
C1820      C1821   1.411       .  A
C1820      H1825   1.078       .  S
C1821      C1822   1.422   1_556  A
C1822      N1823   1.435       .  S
N1823      H1827   1.042       .  S
N1823      H1828   1.044       .  S
N1826      H1829   1.046       .  S
N1826      H1830   1.045       .  S
C1831      C1832   1.413       .  A
C1831      C1836   1.421       .  A
C1831      H1838   1.081       .  S
C1832      C1833   1.420   1_554  A
C1833      C1834   1.386       .  A
C1833      N1840   1.435       .  S
C1834      C1835   1.397   1_556  A
C1834      H1839   1.085       .  S
C1835      C1836   1.413       .  A
C1836      N1837   1.436       .  S
N1837      H1841   1.046       .  S
N1837      H1842   1.044       .  S
N1840      H1843   1.046       .  S
N1840      H1844   1.046       .  S
C1845      C1846   1.397   1_554  A
C1845      C1850   1.401       .  A
C1845      H1852   1.084       .  S
C1846      C1847   1.409       .  A
C1847      C1848   1.405       .  A
C1847      N1854   1.432       .  S
C1848      C1849   1.404       .  A
C1848      H1853   1.084       .  S
C1849      C1850   1.409   1_556  A
C1850      N1851   1.425       .  S
N1851      H1855   1.044       .  S
N1851      H1856   1.046       .  S
N1854      H1857   1.046       .  S
N1854      H1858   1.045       .  S
C1859      C1860   1.398   1_556  A
C1859      C1864   1.386       .  A
C1859      H1866   1.085       .  S
C1860      C1861   1.410       .  A
C1861      C1862   1.410       .  A
C1861      N1868   1.431       .  S
C1862      C1863   1.412       .  A
C1862      H1867   1.080       .  S
C1863      C1864   1.420   1_554  A
C1864      N1865   1.436       .  S
N1865      H1869   1.045       .  S
N1865      H1870   1.046       .  S
N1868      H1871   1.045       .  S
N1868      H1872   1.046       .  S
In1873     O1875   2.298       .  S
In1873     O1876   2.241       .  S
In1873     O1884   2.255       .  S
In1873     O1878   2.255       .  S
In1873     O1880   2.260       .  S
In1873     O1881   2.286       .  S
In1873     O1882   2.264       .  S
In1873     O1885   2.255       .  S
C1874      O1880   1.260       .  A
C1874      O1882   1.260       .  A
C1874      C1950   1.473       .  S
O1875      C1883   1.261       .  A
O1876      C1883   1.261       .  A
C1877      O1884   1.260       .  A
C1877      O1878   1.261       .  A
C1877      C1896   1.470       .  S
C1879      O1881   1.263       .  A
C1879      O1885   1.259       .  A
C1879      C2124   1.479       .  S
C1883      C1992   1.490       .  S
In1886     O1888   2.258       .  S
In1886     O1889   2.251       .  S
In1886     O1897   2.211       .  S
In1886     O1891   2.277       .  S
In1886     O1894   2.216       .  S
In1886     O1895   2.204       .  S
In1886     O1898   2.253       .  S
C1887      O1895   1.257       .  A
C1887      C1918   1.457       .  S
O1888      C1896   1.262       .  A
O1889      C1896   1.261       .  A
C1890      O1897   1.258       .  A
C1890      O1891   1.265       .  A
C1890      C2105   1.464       .  S
C1892      O1894   1.258       .  A
C1892      O1898   1.262       .  A
C1892      C2076   1.456       .  S
C1899      C1905   1.515   1_554  S
C1899      C1903   1.549       .  S
C1899      C2487   1.527       .  S
C1900      H1907   1.086       .  S
C1900      C1901   1.367       .  D
C1901      C2473   1.488       .  S
C1901      C1902   1.542       .  S
C1902      C1906   1.533   1_565  S
C1902      C1904   1.547   1_556  S
C1902      H1908   1.111       .  S
C1903      H1909   1.083       .  S
C1904      C1929   1.478       .  S
C1905      H1910   1.090       .  S
C1906      C1963   1.450       .  S
C1911      C1912   1.551       .  S
C1911      C1917   1.519   1_554  S
C1911      C1915   1.538   1_655  S
C1911      C2456   1.532       .  S
C1912      H1919   1.084       .  S
C1913      C1946   1.483       .  S
C1913      C1914   1.548   1_554  S
C1914      C1916   1.539       .  S
C1914      H1920   1.111       .  S
C1915      H1921   1.087       .  S
C1916      C2470   1.481       .  S
C1917      H1922   1.089       .  S
C1917      C1918   1.348       .  D
In1923     O1925   2.213       .  S
In1923     O1926   2.255       .  S
In1923     O1934   2.258       .  S
In1923     O1928   2.242       .  S
In1923     O1930   2.257       .  S
In1923     O1931   2.267       .  S
In1923     O1932   2.248       .  S
In1923     O1935   2.239       .  S
C1924      O1930   1.261       .  A
C1924      O1932   1.259       .  A
C1924      C1937   1.467       .  S
O1925      C1933   1.258       .  A
O1926      C1933   1.264       .  A
C1927      O1934   1.261       .  A
C1927      O1928   1.259       .  A
C1927      C2026   1.466       .  S
C1929      O1931   1.260       .  A
C1929      O1935   1.259       .  A
C1933      C2157   1.456       .  S
In1936     O1938   2.253       .  S
In1936     O1939   2.276       .  S
In1936     O1947   2.276       .  S
In1936     O1941   2.245       .  S
In1936     O1943   2.256       .  S
In1936     O1944   2.276       .  S
In1936     O1945   2.254       .  S
In1936     O1948   2.228       .  S
C1937      O1943   1.259       .  A
C1937      O1945   1.260       .  A
O1938      C1946   1.259       .  A
O1939      C1946   1.259       .  A
C1940      O1947   1.262       .  A
C1940      O1941   1.257       .  A
C1940      C2000   1.471       .  S
C1942      O1944   1.262       .  A
C1942      O1948   1.258       .  A
C1942      C2174   1.465       .  S
In1949     O1951   2.250       .  S
In1949     O1952   2.292       .  S
In1949     O1960   2.260       .  S
In1949     O1954   2.253       .  S
In1949     O1956   2.255       .  S
In1949     O1957   2.259       .  S
In1949     O1958   2.266       .  S
In1949     O1961   2.282       .  S
C1950      O1956   1.259       .  A
C1950      O1958   1.262       .  A
O1951      C1959   1.258       .  A
O1952      C1959   1.263       .  A
C1953      O1960   1.260       .  A
C1953      O1954   1.260       .  A
C1953      C1968   1.468       .  S
C1955      O1957   1.261       .  A
C1955      O1961   1.259       .  A
C1955      C1977   1.488       .  S
C1959      C2271   1.478       .  S
In1962     O1965   2.206       .  S
In1962     O1973   2.205       .  S
In1962     O1970   2.253       .  S
In1962     O1971   2.209       .  S
In1962     O1974   2.259       .  S
C1963      O1969   1.263       .  A
O1965      C1972   1.261       .  A
C1966      O1973   1.257       .  A
C1966      C2282   1.459       .  S
C1968      O1970   1.260       .  A
C1968      O1974   1.260       .  A
C1972      C2092   1.448       .  S
C1975      C1976   1.541       .  S
C1975      C1981   1.513   1_556  S
C1975      C1979   1.534   1_556  S
C1975      C2442   1.527       .  S
C1976      H1983   1.084       .  S
C1976      C1977   1.374       .  D
C1977      C1978   1.556   1_556  S
C1978      C1982   1.555       .  S
C1978      C1980   1.544       .  S
C1978      H1984   1.110       .  S
C1979      H1985   1.088       .  S
C1979      C1980   1.363       .  D
C1980      C2484   1.481       .  S
C1981      H1986   1.089       .  S
C1981      C1982   1.353       .  D
C1982      C2018   1.475       .  S
C1987      C1988   1.537       .  S
C1987      C1993   1.522   1_556  S
C1987      C1991   1.527       .  S
C1987      C2428   1.531       .  S
C1988      H1995   1.080   1_556  S
C1988      C1989   1.371   1_556  D
C1989      C2459   1.490       .  S
C1989      C1990   1.549       .  S
C1990      C1994   1.557       .  S
C1990      C1992   1.558   1_554  S
C1990      H1996   1.109       .  S
C1991      H1997   1.086       .  S
C1991      C1992   1.366       .  D
C1993      H1998   1.088       .  S
C1993      C1994   1.356       .  D
C1994      C2048   1.476       .  S
In1999     O2001   2.219       .  S
In1999     O2010   2.267       .  S
In1999     O2004   2.263       .  S
In1999     O2006   2.248       .  S
In1999     O2007   2.282       .  S
In1999     O2008   2.265       .  S
In1999     O2011   2.218       .  S
C2000      O2006   1.261       .  A
C2000      O2008   1.261       .  A
O2001      C2009   1.259       .  A
C2003      O2010   1.262       .  A
C2003      O2004   1.263       .  A
C2003      C2016   1.477       .  S
C2005      O2007   1.266       .  A
C2005      O2011   1.259       .  A
C2005      C2313   1.470       .  S
C2009      C2070   1.473       .  S
In2012     O2014   2.213       .  S
In2012     O2015   2.286       .  S
In2012     O2023   2.269       .  S
In2012     O2017   2.256       .  S
In2012     O2019   2.221       .  S
In2012     O2020   2.295       .  S
In2012     O2021   2.256       .  S
In2012     O2024   2.216       .  S
C2013      O2019   1.259       .  A
C2013      O2021   1.260       .  A
C2013      C2039   1.458       .  S
O2014      C2022   1.257       .  A
O2015      C2022   1.267       .  A
C2016      O2023   1.264       .  A
C2016      O2017   1.261       .  A
C2018      O2020   1.264       .  A
C2018      O2024   1.258       .  A
C2022      C2322   1.469       .  S
In2025     O2027   2.212       .  S
In2025     O2028   2.278       .  S
In2025     O2036   2.262       .  S
In2025     O2030   2.247       .  S
In2025     O2032   2.237       .  S
In2025     O2033   2.283       .  S
In2025     O2034   2.251       .  S
In2025     O2037   2.207       .  S
C2026      O2032   1.262       .  A
C2026      O2034   1.263       .  A
O2027      C2035   1.259       .  A
O2028      C2035   1.267       .  A
C2029      O2036   1.262       .  A
C2029      O2030   1.263       .  A
C2029      C2042   1.471       .  S
C2031      O2033   1.266       .  A
C2031      O2037   1.258       .  A
C2031      C2058   1.470       .  S
C2035      C2245   1.467       .  S
In2038     O2040   2.218       .  S
In2038     O2041   2.298       .  S
In2038     O2049   2.274       .  S
In2038     O2043   2.246       .  S
In2038     O2045   2.212       .  S
In2038     O2046   2.295       .  S
In2038     O2047   2.255       .  S
In2038     O2050   2.218       .  S
C2039      O2045   1.258       .  A
C2039      O2047   1.264       .  A
O2040      C2048   1.257       .  A
O2041      C2048   1.264       .  A
C2042      O2049   1.262       .  A
C2042      O2043   1.257       .  A
C2044      O2046   1.266       .  A
C2044      O2050   1.256       .  A
C2044      C2262   1.471       .  S
C2051      C2052   1.526       .  S
C2051      C2057   1.525   1_556  S
C2051      C2055   1.546       .  S
C2051      C2431   1.528       .  S
C2052      H2059   1.086       .  S
C2052      C2053   1.364       .  D
C2053      C2098   1.472   1_565  S
C2054      C2056   1.542   1_556  S
C2054      H2060   1.111   1_556  S
C2055      H2061   1.082       .  S
C2056      C2414   1.487       .  S
C2057      H2062   1.088       .  S
C2057      C2058   1.355       .  D
C2063      C2064   1.527       .  S
C2063      C2069   1.524   1_556  S
C2063      C2067   1.538       .  S
C2063      C2445   1.526       .  S
C2065      C2417   1.481       .  S
C2065      C2066   1.546       .  S
C2066      C2068   1.552   1_554  S
C2066      H2072   1.110       .  S
C2067      H2073   1.084       .  S
C2068      C2085   1.475       .  S
C2069      H2074   1.088       .  S
C2069      C2070   1.355       .  D
In2075     O2077   2.256       .  S
In2075     O2086   2.238       .  S
In2075     O2080   2.238       .  S
In2075     O2082   2.220       .  S
In2075     O2083   2.269       .  S
In2075     O2084   2.252       .  S
In2075     O2087   2.225       .  S
C2076      O2082   1.258       .  A
C2076      O2084   1.260       .  A
O2077      C2085   1.258       .  A
C2079      O2086   1.261       .  A
C2079      O2080   1.260       .  A
C2079      C2089   1.458       .  S
C2081      O2083   1.264       .  A
C2081      O2087   1.258       .  A
C2081      C2207   1.465       .  S
In2088     O2090   2.254       .  S
In2088     O2093   2.213       .  S
In2088     O2095   2.241       .  S
In2088     O2096   2.261       .  S
In2088     O2097   2.234       .  S
In2088     O2100   2.226       .  S
C2089      O2095   1.260       .  A
C2089      O2097   1.260       .  A
O2091      C2098   1.261       .  A
C2092      O2093   1.258       .  A
C2094      O2096   1.262       .  A
C2094      O2100   1.258       .  A
C2094      C2220   1.461       .  S
In2101     O2103   2.236       .  S
In2101     O2104   2.205       .  S
In2101     O2112   2.210       .  S
In2101     O2106   2.277       .  S
In2101     O2109   2.250       .  S
In2101     O2110   2.214       .  S
In2101     O2113   2.248       .  S
C2102      O2110   1.256       .  A
C2102      C2146   1.453       .  S
O2103      C2111   1.263       .  A
O2104      C2111   1.260       .  A
C2105      O2112   1.257       .  A
C2105      O2106   1.265       .  A
C2107      O2109   1.259       .  A
C2107      O2113   1.260       .  A
C2107      C2118   1.464       .  S
C2111      C2205   1.450       .  S
In2114     O2116   2.252       .  S
In2114     O2117   2.285       .  S
In2114     O2125   2.245       .  S
In2114     O2119   2.252       .  S
In2114     O2121   2.255       .  S
In2114     O2122   2.240       .  S
In2114     O2123   2.265       .  S
In2114     O2126   2.295       .  S
C2115      O2121   1.260       .  A
C2115      O2123   1.260       .  A
C2115      C2266   1.473       .  S
O2116      C2124   1.259       .  A
O2117      C2124   1.264       .  A
C2118      O2125   1.259       .  A
C2118      O2119   1.261       .  A
C2120      O2122   1.262       .  A
C2120      O2126   1.260       .  A
C2120      C2179   1.488       .  S
C2127      C2128   1.543       .  S
C2127      C2133   1.519       .  S
C2127      C2400   1.528       .  S
C2128      H2135   1.081       .  S
C2129      C2161   1.468       .  S
C2129      C2130   1.547       .  S
C2130      C2134   1.530   1_565  S
C2130      C2132   1.543       .  S
C2130      H2136   1.108       .  S
C2131      H2137   1.087       .  S
C2131      C2132   1.368       .  D
C2132      C2389   1.493       .  S
C2133      H2138   1.090       .  S
C2134      C2279   1.448       .  S
C2139      C2140   1.539   1_655  S
C2139      C2145   1.520       .  S
C2139      C2143   1.550       .  S
C2139      C2372   1.530       .  S
C2140      H2147   1.086       .  S
C2141      C2386   1.479       .  S
C2141      C2142   1.537       .  S
C2142      C2144   1.545       .  S
C2142      H2148   1.111       .  S
C2143      H2149   1.084       .  S
C2144      C2170   1.481       .  S
C2145      H2150   1.089       .  S
C2145      C2146   1.347       .  D
In2151     O2153   2.232       .  S
In2151     O2154   2.243       .  S
In2151     O2162   2.249       .  S
In2151     O2156   2.236       .  S
In2151     O2158   2.256       .  S
In2151     O2159   2.252       .  S
In2151     O2160   2.251       .  S
In2151     O2163   2.215       .  S
C2152      O2158   1.260       .  A
C2152      O2160   1.259       .  A
C2152      C2165   1.466       .  S
O2153      C2161   1.259       .  A
O2154      C2161   1.258       .  A
C2155      O2162   1.260       .  A
C2155      O2156   1.259       .  A
C2155      C2240   1.461       .  S
C2157      O2159   1.262       .  A
C2157      O2163   1.259       .  A
In2164     O2166   2.222       .  S
In2164     O2167   2.272       .  S
In2164     O2175   2.267       .  S
In2164     O2169   2.251       .  S
In2164     O2171   2.256       .  S
In2164     O2173   2.252       .  S
In2164     O2176   2.253       .  S
C2165      O2171   1.260       .  A
C2165      O2173   1.260       .  A
O2166      C2174   1.258       .  A
O2167      C2174   1.264       .  A
C2168      O2175   1.261       .  A
C2168      O2169   1.258       .  A
C2168      C2304   1.471       .  S
C2170      O2176   1.259       .  A
C2177      C2178   1.527       .  S
C2177      C2183   1.523       .  S
C2177      C2181   1.532       .  S
C2177      C2361   1.527       .  S
C2178      H2185   1.086       .  S
C2178      C2179   1.366       .  D
C2179      C2180   1.557       .  S
C2180      C2184   1.558       .  S
C2180      C2182   1.550       .  S
C2180      H2186   1.110       .  S
C2181      H2187   1.080       .  S
C2181      C2182   1.368       .  D
C2182      C2375   1.490       .  S
C2183      H2188   1.088       .  S
C2183      C2184   1.359       .  D
C2184      C2258   1.481       .  S
C2189      C2190   1.530       .  S
C2189      C2195   1.525       .  S
C2189      C2193   1.539       .  S
C2189      C2330   1.532       .  S
C2190      H2197   1.080       .  S
C2191      C2211   1.471       .  S
C2191      C2192   1.553       .  S
C2192      C2194   1.545       .  S
C2192      H2198   1.110       .  S
C2194      C2344   1.487       .  S
C2195      H2200   1.088       .  S
C2195      C2196   1.356       .  D
C2196      C2309   1.473       .  S
In2201     O2203   2.257       .  S
In2201     O2204   2.224       .  S
In2201     O2212   2.243       .  S
In2201     O2206   2.213       .  S
In2201     O2208   2.243       .  S
In2201     O2209   2.268       .  S
In2201     O2210   2.228       .  S
In2201     O2213   2.230       .  S
C2202      O2208   1.259       .  A
C2202      O2210   1.259       .  A
C2202      C2218   1.455       .  S
O2203      C2211   1.258       .  A
O2204      C2211   1.260       .  A
C2205      O2212   1.261       .  A
C2205      O2206   1.257       .  A
C2207      O2209   1.262       .  A
C2207      O2213   1.259       .  A
In2214     O2216   2.265       .  S
In2214     O2225   2.224       .  S
In2214     O2219   2.242       .  S
In2214     O2221   2.221       .  S
In2214     O2226   2.224       .  S
C2215      O2221   1.259       .  A
C2215      C2284   1.449       .  S
O2217      C2224   1.260       .  A
C2218      O2225   1.259       .  A
C2218      O2219   1.261       .  A
C2220      O2226   1.259       .  A
C2224      C2232   1.471   1_545  S
C2227      C2228   1.542       .  S
C2227      C2233   1.524       .  S
C2227      C2231   1.525       .  S
C2227      C2358   1.521       .  S
C2228      H2235   1.082   1_565  S
C2229      C2347   1.483       .  S
C2229      C2230   1.543       .  S
C2230      H2236   1.111       .  S
C2231      H2237   1.087       .  S
C2231      C2232   1.363       .  D
C2233      H2238   1.088       .  S
C2233      C2234   1.355       .  D
C2234      C2249   1.469       .  S
In2239     O2241   2.210       .  S
In2239     O2242   2.281       .  S
In2239     O2250   2.256       .  S
In2239     O2244   2.250       .  S
In2239     O2246   2.236       .  S
In2239     O2247   2.275       .  S
In2239     O2248   2.247       .  S
In2239     O2251   2.215       .  S
C2240      O2246   1.260       .  A
C2240      O2248   1.261       .  A
O2241      C2249   1.258       .  A
O2242      C2249   1.264       .  A
C2243      O2250   1.262       .  A
C2243      O2244   1.262       .  A
C2243      C2256   1.470       .  S
C2245      O2247   1.266       .  A
C2245      O2251   1.259       .  A
In2252     O2254   2.214       .  S
In2252     O2255   2.292       .  S
In2252     O2263   2.262       .  S
In2252     O2257   2.247       .  S
In2252     O2259   2.223       .  S
In2252     O2260   2.312       .  S
In2252     O2261   2.263       .  S
In2252     O2264   2.207       .  S
C2253      O2259   1.258       .  A
C2253      O2261   1.263       .  A
C2253      C2317   1.462       .  S
O2254      C2262   1.257       .  A
O2255      C2262   1.267       .  A
C2256      O2263   1.263       .  A
C2256      O2257   1.260       .  A
C2258      O2260   1.264       .  A
C2258      O2264   1.257       .  A
In2265     O2267   2.280       .  S
In2265     O2268   2.260       .  S
In2265     O2276   2.266       .  S
In2265     O2270   2.256       .  S
In2265     O2272   2.256       .  S
In2265     O2273   2.289       .  S
In2265     O2274   2.270       .  S
In2265     O2277   2.250       .  S
C2266      O2272   1.259       .  A
C2266      O2274   1.261       .  A
O2267      C2275   1.260       .  A
O2268      C2275   1.260       .  A
C2269      O2276   1.261       .  A
C2269      O2270   1.260       .  A
C2269      C2288   1.472       .  S
C2271      O2273   1.263       .  A
C2271      O2277   1.258       .  A
C2275      C2296   1.488       .  S
In2278     O2280   2.267       .  S
In2278     O2281   2.252       .  S
In2278     O2289   2.207       .  S
In2278     O2286   2.213       .  S
In2278     O2287   2.205       .  S
C2279      O2285   1.262       .  A
O2280      C2288   1.261       .  A
O2281      C2288   1.259       .  A
C2282      O2289   1.258       .  A
C2284      O2286   1.261       .  A
C2291      C2292   1.524       .  S
C2291      C2297   1.517       .  S
C2291      C2295   1.549       .  S
C2291      C2333   1.528       .  S
C2292      H2299   1.082       .  S
C2292      C2293   1.360       .  D
C2293      C2403   1.473       .  S
C2293      C2294   1.542       .  S
C2294      C2298   1.549       .  S
C2294      C2296   1.550       .  S
C2294      H2300   1.111       .  S
C2295      H2301   1.084       .  S
C2295      C2296   1.373       .  D
C2297      H2302   1.089       .  S
C2297      C2298   1.353       .  D
C2298      C2326   1.467       .  S
In2303     O2305   2.217       .  S
In2303     O2306   2.280       .  S
In2303     O2314   2.265       .  S
In2303     O2308   2.261       .  S
In2303     O2310   2.251       .  S
In2303     O2312   2.260       .  S
In2303     O2315   2.213       .  S
C2304      O2310   1.262       .  A
C2304      O2312   1.261       .  A
O2305      C2313   1.259       .  A
O2306      C2313   1.267       .  A
C2307      O2314   1.262       .  A
C2307      O2308   1.264       .  A
C2307      C2320   1.477       .  S
C2309      O2315   1.258       .  A
In2316     O2318   2.230       .  S
In2316     O2319   2.278       .  S
In2316     O2327   2.274       .  S
In2316     O2321   2.263       .  S
In2316     O2323   2.223       .  S
In2316     O2324   2.284       .  S
In2316     O2325   2.263       .  S
In2316     O2328   2.217       .  S
C2317      O2323   1.259       .  A
C2317      O2325   1.263       .  A
O2318      C2326   1.257       .  A
O2319      C2326   1.262       .  A
C2320      O2327   1.261       .  A
C2320      O2321   1.259       .  A
C2322      O2324   1.265       .  A
C2322      O2328   1.258       .  A
C2329      C2330   1.407       .  A
C2329      C2334   1.385       .  A
C2329      H2336   1.081       .  S
C2330      C2331   1.424       .  A
C2331      C2332   1.399       .  A
C2331      N2338   1.430       .  S
C2332      C2333   1.408       .  A
C2332      H2337   1.080       .  S
C2333      C2334   1.425       .  A
C2334      N2335   1.435       .  S
N2335      H2339   1.042       .  S
N2335      H2340   1.045       .  S
N2338      H2341   1.043       .  S
N2338      H2342   1.044       .  S
C2343      C2344   1.405       .  A
C2343      C2348   1.403       .  A
C2343      H2350   1.084       .  S
C2344      C2345   1.407       .  A
C2345      C2346   1.406       .  A
C2345      N2352   1.426       .  S
C2346      C2347   1.402       .  A
C2346      H2351   1.084       .  S
C2347      C2348   1.407       .  A
C2348      N2349   1.432       .  S
N2349      H2353   1.046       .  S
N2352      H2355   1.043       .  S
N2352      H2356   1.046       .  S
C2357      C2358   1.407       .  A
C2357      C2362   1.400       .  A
C2357      H2364   1.079       .  S
C2358      C2359   1.416       .  A
C2359      C2360   1.394       .  A
C2359      N2366   1.433       .  S
C2360      C2361   1.402       .  A
C2360      H2365   1.084       .  S
C2361      C2362   1.417       .  A
C2362      N2363   1.435       .  S
N2363      H2367   1.045       .  S
N2363      H2368   1.045       .  S
N2366      H2369   1.045       .  S
N2366      H2370   1.046       .  S
C2371      C2372   1.414       .  A
C2371      C2376   1.420       .  A
C2371      H2378   1.080       .  S
C2372      C2373   1.418       .  A
C2373      C2374   1.386       .  A
C2373      N2380   1.435       .  S
C2374      C2375   1.399       .  A
C2374      H2379   1.084       .  S
C2375      C2376   1.411       .  A
C2376      N2377   1.436       .  S
N2377      H2381   1.046       .  S
N2377      H2382   1.045       .  S
N2380      H2383   1.046       .  S
N2380      H2384   1.046       .  S
C2385      C2386   1.397       .  A
C2385      C2390   1.396       .  A
C2385      H2392   1.084       .  S
C2386      C2387   1.407       .  A
C2387      C2388   1.403       .  A
C2387      N2394   1.432       .  S
C2388      C2389   1.406       .  A
C2388      H2393   1.084       .  S
C2389      C2390   1.419       .  A
C2390      N2391   1.424       .  S
N2391      H2395   1.042       .  S
N2391      H2396   1.043       .  S
N2394      H2397   1.045       .  S
N2394      H2398   1.046       .  S
C2399      C2400   1.410       .  A
C2399      C2404   1.377       .  A
C2399      H2406   1.085       .  S
C2400      C2401   1.417       .  A
C2401      C2402   1.413       .  A
C2401      N2408   1.428       .  S
C2402      C2403   1.404       .  A
C2402      H2407   1.084       .  S
C2403      C2404   1.410       .  A
C2404      N2405   1.436       .  S
N2405      H2409   1.041       .  S
N2405      H2410   1.044       .  S
N2408      H2411   1.046       .  S
N2408      H2412   1.045       .  S
C2413      C2414   1.401       .  A
C2413      C2418   1.402       .  A
C2413      H2420   1.084       .  S
C2414      C2415   1.410   1_554  A
C2415      C2416   1.404       .  A
C2415      N2422   1.426       .  S
C2416      C2417   1.398   1_556  A
C2416      H2421   1.083       .  S
C2417      C2418   1.411       .  A
C2418      N2419   1.432       .  S
N2419      H2423   1.046       .  S
N2419      H2424   1.045       .  S
N2422      H2425   1.044       .  S
N2422      H2426   1.045       .  S
C2427      C2428   1.404       .  A
C2427      C2432   1.398       .  A
C2427      H2434   1.084       .  S
C2428      C2429   1.417       .  A
C2429      C2430   1.402       .  A
C2429      N2436   1.435       .  S
C2430      C2431   1.408       .  A
C2430      H2435   1.079       .  S
C2431      C2432   1.420       .  A
C2432      N2433   1.439       .  S
N2433      H2437   1.046       .  S
N2433      H2438   1.044       .  S
N2436      H2439   1.044       .  S
N2436      H2440   1.045       .  S
C2441      C2442   1.407       .  A
C2441      C2446   1.382   1_556  A
C2441      H2448   1.081   1_556  S
C2442      C2443   1.417       .  A
C2443      C2444   1.408       .  A
C2443      N2450   1.437       .  S
C2444      C2445   1.411       .  A
C2444      H2449   1.078       .  S
C2445      C2446   1.422   1_556  A
C2446      N2447   1.435       .  S
N2447      H2451   1.042       .  S
N2447      H2452   1.044       .  S
N2450      H2453   1.046       .  S
N2450      H2454   1.045       .  S
C2455      C2456   1.413       .  A
C2455      C2460   1.421       .  A
C2455      H2462   1.081       .  S
C2456      C2457   1.420   1_554  A
C2457      C2458   1.386       .  A
C2457      N2464   1.435       .  S
C2458      C2459   1.397   1_556  A
C2458      H2463   1.085       .  S
C2459      C2460   1.413       .  A
C2460      N2461   1.436       .  S
N2461      H2465   1.046       .  S
N2461      H2466   1.044       .  S
N2464      H2467   1.046       .  S
N2464      H2468   1.046       .  S
C2469      C2470   1.397   1_554  A
C2469      C2474   1.401       .  A
C2469      H2476   1.084       .  S
C2470      C2471   1.409       .  A
C2471      C2472   1.405       .  A
C2471      N2478   1.432       .  S
C2472      C2473   1.404       .  A
C2472      H2477   1.084       .  S
C2473      C2474   1.409   1_556  A
C2474      N2475   1.425       .  S
N2475      H2479   1.044       .  S
N2475      H2480   1.046       .  S
N2478      H2481   1.046       .  S
N2478      H2482   1.045       .  S
C2483      C2484   1.398   1_556  A
C2483      C2488   1.386       .  A
C2483      H2490   1.085       .  S
C2484      C2485   1.410       .  A
C2485      C2486   1.410       .  A
C2485      N2492   1.431       .  S
C2486      C2487   1.412       .  A
C2486      H2491   1.080       .  S
C2487      C2488   1.420   1_554  A
C2488      N2489   1.436       .  S
N2489      H2493   1.045       .  S
N2489      H2494   1.046       .  S
N2492      H2495   1.045       .  S
N2492      H2496   1.046       .  S
