geometry optimzed in LAMMPS
_audit_creation_date              2020-11-30 
_audit_creation_method            'lammps2cif' 
_symmetry_space_group_name_H-M    'P1' 
_symmetry_Int_Tables_number       1 
_symmetry_cell_setting            triclinic 
loop_ 
_symmetry_equiv_pos_as_xyz 
  x,y,z 
_cell_length_a                    43.93946506038451 
_cell_length_b                    43.06658657342268 
_cell_length_c                    30.675282955175934 
_cell_angle_alpha                 90.61307813909906 
_cell_angle_beta                  90.3070420917733 
_cell_angle_gamma                 119.19735312329344 
loop_ 
_atom_site_label 
_atom_site_type_symbol 
_atom_site_fract_x 
_atom_site_fract_y 
_atom_site_fract_z 
_atom_site_charge 
N1          N  0.07276581  0.58733227  0.40021885    -0.07610
N2          N  0.07520301  0.60774740  0.43390603    -0.59730
N3          N  0.02992305  0.55834808  0.30694424    -0.07290
N4          N  0.00878498  0.56447535  0.28238615    -0.61860
N5          N  0.01294236  0.53826513  0.33992979    -0.06890
N6          N  0.97990198  0.53010739  0.33858017    -0.59710
N7          N  0.09042912  0.60695486  0.36714262    -0.06570
N8          N  0.10563548  0.64091811  0.37778712    -0.62210
C9          C  0.09650560  0.64100751  0.41966906     0.94560
C10         C  0.97774085  0.54618274  0.30218776     0.94340
N11         N  0.09742917  0.53540995  0.23601057    -0.07800
N12         N  0.08960556  0.51973082  0.19745316    -0.60310
N13         N  0.14409205  0.60961507  0.29864027    -0.05920
N14         N  0.16704701  0.64390896  0.30241988    -0.61560
N15         N  0.15998788  0.59096146  0.29178177    -0.07830
N16         N  0.19418557  0.61229783  0.29080146    -0.60580
N17         N  0.08198828  0.55476985  0.24157976    -0.05560
N18         N  0.06309206  0.55241257  0.20699968    -0.61650
Mn19       Mn  0.08685027  0.58365069  0.30255537     1.18440
C20         C  0.06780080  0.53015321  0.18014844     0.96640
C21         C  0.19833611  0.64539679  0.29715910     0.97310
N22         N  0.00939150  0.47095533  0.38072176    -0.07850
N23         N  0.97629383  0.45185571  0.36816687    -0.64160
N24         N  0.08660497  0.50323097  0.43693792    -0.06650
N25         N  0.10770400  0.50661438  0.46943017    -0.64830
N26         N  0.07088961  0.52191883  0.44429868    -0.07360
N27         N  0.08111272  0.53871827  0.48217102    -0.64420
N28         N  0.02560508  0.45247507  0.37483715    -0.06250
N29         N  0.00397952  0.42058906  0.35846682    -0.65110
Mn30       Mn  0.04039968  0.52924355  0.39287668     1.10660
C31         C  0.97318193  0.42024726  0.35487817     0.97870
C32         C  0.10393116  0.52870471  0.49749384     0.97940
N33         N  0.15805895  0.52797386  0.34051310    -0.07360
N34         N  0.19174249  0.54053287  0.34295916    -0.62740
N35         N  0.07745064  0.45446854  0.31034590    -0.06680
N36         N  0.07021036  0.42125450  0.31316673    -0.59470
N37         N  0.10400830  0.47213345  0.28462050    -0.07990
N38         N  0.11884619  0.45211465  0.27659043    -0.62300
N39         N  0.14178503  0.50652836  0.37266230    -0.06980
N40         N  0.16490815  0.50406945  0.39830288    -0.59490
Mn41       Mn  0.13044734  0.53184194  0.28665364     1.20190
Mn42       Mn  0.08285820  0.47848926  0.37445590     1.10090
Cl43       Cl  0.08524953  0.53126518  0.33917954    -0.87460
C44         C  0.19583819  0.52583561  0.37921750     0.94870
C45         C  0.09716153  0.42016743  0.29486459     0.94670
N46         N  0.08743725  0.61334872  0.84417225    -0.07610
N47         N  0.08102263  0.64019076  0.84259841    -0.59730
N48         N  0.16235883  0.61444221  0.84826380    -0.07290
N49         N  0.19465597  0.63835433  0.85750400    -0.61860
N50         N  0.15379731  0.61803102  0.80841072    -0.06890
N51         N  0.18054359  0.64499076  0.78961572    -0.59710
N52         N  0.09638064  0.60978178  0.88395091    -0.06570
N53         N  0.09605524  0.63402140  0.91032354    -0.62210
C54         C  0.08577449  0.65233411  0.88423273     0.94560
C55         C  0.20609330  0.65711138  0.82076536     0.94340
N56         N  0.13886490  0.51674371  0.89766743    -0.07800
N57         N  0.16288874  0.50714968  0.89052929    -0.60310
N58         N  0.08503172  0.54548187  0.93892279    -0.05920
N59         N  0.07681748  0.55607260  0.97487545    -0.61560
N60         N  0.07030899  0.51069757  0.93710774    -0.07830
N61         N  0.05247581  0.49687806  0.97294115    -0.60580
N62         N  0.15377131  0.55156268  0.90168879    -0.05560
N63         N  0.18789671  0.56612599  0.89736851    -0.61650
Mn64       Mn  0.12436843  0.58019192  0.89448496     1.18440
C65         C  0.19338342  0.53826602  0.89054826     0.96640
C66         C  0.05661426  0.52571687  0.99600630     0.97310
N67         N  0.10964936  0.56129086  0.73580617    -0.07850
N68         N  0.12932689  0.57693355  0.70204434    -0.64160
N69         N  0.02617088  0.52198195  0.76824324    -0.06650
N70         N  0.99210047  0.50978240  0.76503580    -0.64830
N71         N  0.04242859  0.55685471  0.77301636    -0.07360
N72         N  0.01986309  0.56878015  0.77323492    -0.64420
N73         N  0.09412194  0.52644520  0.73110198    -0.06250
N74         N  0.10287912  0.51784709  0.69375195    -0.65110
Mn75       Mn  0.09829086  0.58783409  0.78891791     1.10660
C76         C  0.12495528  0.54960273  0.67610123     0.97870
C77         C  0.98845669  0.53928099  0.76796838     0.97940
N78         N  0.02559625  0.45285965  0.86332372    -0.07360
N79         N  0.99933738  0.42411016  0.88049662    -0.62740
N80         N  0.08137731  0.45846652  0.78998974    -0.06680
N81         N  0.08030681  0.43061100  0.76910597    -0.59470
N82         N  0.09408540  0.46054928  0.82948233    -0.07990
N83         N  0.10341758  0.43628280  0.83544615    -0.62300
N84         N  0.01639775  0.45799863  0.82431959    -0.06980
N85         N  0.98407515  0.43424342  0.81482345    -0.59490
Mn86       Mn  0.08206168  0.48467858  0.88344859     1.20190
Mn87       Mn  0.05417480  0.49074875  0.77659645     1.10090
Cl88       Cl  0.08950019  0.53566613  0.83551494    -0.87460
C89         C  0.97330584  0.41352956  0.85006477     0.94870
C90         C  0.09536167  0.41786955  0.79780821     0.94670
N91         N  0.83187125  0.58755560  0.23157293    -0.07610
N92         N  0.85362824  0.58922841  0.26257224    -0.59730
N93         N  0.83203114  0.61570216  0.13163576    -0.07290
N94         N  0.85564909  0.63173036  0.10145949    -0.61860
N95         N  0.83415164  0.63858108  0.16175512    -0.06890
N96         N  0.85920017  0.67086373  0.15262026    -0.59710
N97         N  0.82928189  0.56488862  0.20085985    -0.06570
N98         N  0.84894343  0.55066462  0.20998109    -0.62210
C99         C  0.86394938  0.56590689  0.24850744     0.94560
C100        C  0.87207393  0.66609120  0.11472634     0.94340
N101        N  0.73567506  0.53721015  0.08223063    -0.07800
N102        N  0.72433547  0.52824849  0.04169292    -0.60310
N103        N  0.76985775  0.50115774  0.14900051    -0.05920
N104        N  0.78073658  0.47760816  0.15228666    -0.61560
N105        N  0.73569494  0.48522221  0.14718979    -0.07830
N106        N  0.72244342  0.45048135  0.14958510    -0.60580
N107        N  0.77000345  0.55270928  0.08338755    -0.05560
N108        N  0.78243818  0.55518260  0.04429424    -0.61650
Mn109      Mn  0.80079068  0.55845686  0.14076965     1.18440
C110        C  0.75406933  0.54000081  0.01862660     0.96640
C111        C  0.75079539  0.44614568  0.15248661     0.97310
N112        N  0.77711943  0.64865518  0.20976569    -0.07850
N113        N  0.78864203  0.67953820  0.19002852    -0.64160
N114        N  0.74110976  0.58005880  0.28096301    -0.06650
N115        N  0.72875483  0.56774527  0.31961666    -0.64830
N116        N  0.77533845  0.59715767  0.28160488    -0.07360
N117        N  0.78711344  0.59648623  0.32086157    -0.64420
N118        N  0.74289499  0.63208530  0.21157105    -0.06250
N119        N  0.73063495  0.65150418  0.19358631    -0.65110
Mn120      Mn  0.80557408  0.61940779  0.22259023     1.10660
C121        C  0.75925733  0.68102366  0.18029275     0.97870
C122        C  0.75776866  0.57831067  0.34415732     0.97940
N123        N  0.68316380  0.49377578  0.20121100    -0.07360
N124        N  0.66390787  0.45983563  0.20799577    -0.62740
N125        N  0.68759558  0.57313383  0.15967557    -0.06680
N126        N  0.66365155  0.58119164  0.17140318    -0.59470
N127        N  0.67350966  0.54078946  0.14337293    -0.07990
N128        N  0.64041837  0.52401865  0.15605839    -0.62300
N129        N  0.67997640  0.51347483  0.23169841    -0.06980
N130        N  0.65691109  0.49189668  0.26071924    -0.59490
Mn131      Mn  0.70678122  0.51440177  0.14196344     1.20190
Mn132      Mn  0.71200144  0.57441696  0.22221717     1.10090
Cl133      Cl  0.75670758  0.56668450  0.18214169    -0.87460
C134        C  0.64773399  0.45832614  0.24522902     0.94870
C135        C  0.63486562  0.54976321  0.17443489     0.94670
N136        N  0.83342345  0.57886086  0.73522919    -0.07610
N137        N  0.85671412  0.57926667  0.76334137    -0.59730
N138        N  0.83235087  0.61377298  0.63971213    -0.07290
N139        N  0.85846498  0.63153878  0.61293744    -0.61860
N140        N  0.83474026  0.63402824  0.67328808    -0.06890
N141        N  0.86214337  0.66581968  0.67022501    -0.59710
N142        N  0.83013819  0.55812478  0.70172219    -0.06570
N143        N  0.85026703  0.54365105  0.70647974    -0.62210
C144        C  0.86673676  0.55672232  0.74507152     0.94560
C145        C  0.87658721  0.66392588  0.63242586     0.94340
N146        N  0.73216073  0.53693399  0.59082330    -0.07800
N147        N  0.71934911  0.53625322  0.55160943    -0.60310
N148        N  0.76969369  0.49846076  0.64832190    -0.05920
N149        N  0.78212595  0.47623774  0.65052540    -0.61560
N150        N  0.73554244  0.48134823  0.64933582    -0.07830
N151        N  0.72398862  0.44674546  0.65261713    -0.60580
N152        N  0.76655796  0.55267687  0.58961298    -0.05560
N153        N  0.77770087  0.56309429  0.55020752    -0.61650
Mn154      Mn  0.79993436  0.55557702  0.64375597     1.18440
C155        C  0.74827771  0.55275192  0.52689930     0.96640
C156        C  0.75346076  0.44400609  0.65274859     0.97310
N157        N  0.77831918  0.64222200  0.72175059    -0.07850
N158        N  0.79087958  0.67271204  0.70056800    -0.64160
N159        N  0.74122196  0.56954502  0.78854798    -0.06650
N160        N  0.72821828  0.54756918  0.82113281    -0.64830
N161        N  0.77540285  0.58463853  0.78857721    -0.07360
N162        N  0.78625263  0.57289212  0.82122150    -0.64420
N163        N  0.74403183  0.62667635  0.72278667    -0.06250
N164        N  0.73308858  0.64667568  0.70281793    -0.65110
Mn165      Mn  0.80605335  0.61122250  0.73184581     1.10660
C166        C  0.76243457  0.67542596  0.68903426     0.97870
C167        C  0.75648133  0.54958877  0.84086810     0.97940
N168        N  0.68669611  0.48805484  0.71167043    -0.07360
N169        N  0.66629392  0.45386159  0.71525416    -0.62740
N170        N  0.68494292  0.56808849  0.67317678    -0.06680
N171        N  0.66233066  0.57813106  0.68441429    -0.59470
N172        N  0.66933777  0.53545336  0.65785261    -0.07990
N173        N  0.63551424  0.52076559  0.66880211    -0.62300
N174        N  0.67860151  0.50662988  0.73854426    -0.06980
N175        N  0.64959896  0.48397365  0.75919332    -0.59490
Mn176      Mn  0.70520431  0.50996198  0.65062088     1.20190
Mn177      Mn  0.71161479  0.56825802  0.73230241     1.10090
Cl178      Cl  0.75603451  0.56138162  0.68948628    -0.87460
C179        C  0.64287382  0.45078476  0.74475205     0.94870
C180        C  0.63145001  0.54844414  0.68509759     0.94670
N181        N  0.12761497  0.84649002  0.94060364    -0.07610
N182        N  0.13793571  0.82311723  0.93067541    -0.59730
N183        N  0.09554797  0.89751375  0.91150018    -0.07290
N184        N  0.08487516  0.89575869  0.87081842    -0.61860
N185        N  0.12979460  0.91658380  0.91363145    -0.06890
N186        N  0.14247152  0.92889886  0.87514804    -0.59710
N187        N  0.09346373  0.83031300  0.94322979    -0.06570
N188        N  0.07975716  0.79600618  0.93523772    -0.62210
C189        C  0.10766093  0.79187089  0.92721358     0.94560
C190        C  0.11450114  0.91559086  0.84850181     0.94340
N191        N  0.04043666  0.89708513  0.02294182    -0.07800
N192        N  0.01544439  0.90504472  0.03052072    -0.60310
N193        N  0.03740734  0.81947108  0.01271783    -0.05920
N194        N  0.01154514  0.78643761  0.00862766    -0.61560
N195        N  0.04071048  0.83023934  0.05353033    -0.07830
N196        N  0.01778930  0.80494034  0.07815228    -0.60580
N197        N  0.03899058  0.88686817  0.98209102    -0.05560
N198        N  0.01301457  0.88743242  0.96119849    -0.61650
Mn199      Mn  0.06593749  0.85828890  0.96149520     1.18440
C200        C  0.99896551  0.89946137  0.99147520     0.96640
C201        C  0.00009581  0.77768860  0.04995425     0.97310
N202        N  0.19278215  0.96084990  0.98102294    -0.07850
N203        N  0.21824786  0.98973027  0.96265429    -0.64160
N204        N  0.19486142  0.90162474  0.04448142    -0.06650
N205        N  0.22507009  0.90376358  0.05684411    -0.64830
N206        N  0.18814589  0.88973162  0.00395024    -0.07360
N207        N  0.21142982  0.88177620  0.98925722    -0.64420
N208        N  0.19142575  0.96749994  0.02257726    -0.06250
N209        N  0.21425151  0.99997584  0.03342812    -0.65110
Mn210      Mn  0.15973438  0.90376746  0.95888281     1.10660
C211        C  0.23071696  0.01397645  0.99633247     0.97870
C212        C  0.23445219  0.89021788  0.02193326     0.97940
N213        N  0.10081130  0.87385310  0.11826774    -0.07360
N214        N  0.08859632  0.86120079  0.15680693    -0.62740
N215        N  0.13661240  0.95826027  0.08929623    -0.06680
N216        N  0.14929242  0.99301101  0.09500303    -0.59470
N217        N  0.10233795  0.94222304  0.08828937    -0.07990
N218        N  0.09107102  0.96533113  0.09333037    -0.62300
N219        N  0.13506940  0.88901561  0.11841495    -0.06980
N220        N  0.14654689  0.88763528  0.15773166    -0.59490
Mn221      Mn  0.07093509  0.88599880  0.07152805     1.20190
Mn222      Mn  0.16487715  0.92879770  0.07006953     1.10090
Cl223      Cl  0.11540933  0.89420263  0.01553191    -0.87460
C224        C  0.11718818  0.86995752  0.18115098     0.94870
C225        C  0.12048864  0.99689999  0.09807420     0.94670
N226        N  0.12601464  0.83008833  0.45283830    -0.07610
N227        N  0.13504793  0.80539939  0.44612318    -0.59730
N228        N  0.09106810  0.87971319  0.42216022    -0.07290
N229        N  0.07488758  0.87865137  0.38543786    -0.61860
N230        N  0.12484634  0.89541158  0.41635241    -0.06890
N231        N  0.13240752  0.90586783  0.37601008    -0.59710
N232        N  0.09247538  0.81545749  0.46032329    -0.06570
N233        N  0.07787785  0.78058720  0.45897764    -0.62210
C234        C  0.10458619  0.77467931  0.44957719     0.94560
C235        C  0.10117692  0.89544394  0.35712749     0.94340
N236        N  0.05168678  0.89457587  0.53820705    -0.07800
N237        N  0.02935304  0.90580189  0.54770601    -0.60310
N238        N  0.04594842  0.81490737  0.53569312    -0.05920
N239        N  0.01941742  0.78242833  0.53530094    -0.61560
N240        N  0.05126514  0.82923631  0.57490358    -0.07830
N241        N  0.02784185  0.80668885  0.60204974    -0.60580
N242        N  0.04487252  0.87948123  0.49930249    -0.05560
N243        N  0.01780219  0.88005303  0.48146881    -0.61650
Mn244      Mn  0.06817698  0.84708308  0.47861220     1.18440
C245        C  0.00881044  0.89703686  0.51167500     0.96640
C246        C  0.00818808  0.77756504  0.57667322     0.97310
N247        N  0.19050593  0.94546331  0.46912357    -0.07850
N248        N  0.19030188  0.96988572  0.44340210    -0.64160
N249        N  0.20355818  0.89372475  0.54149777    -0.06650
N250        N  0.23294287  0.89424140  0.55324996    -0.64830
N251        N  0.19376323  0.87893677  0.50259877    -0.07360
N252        N  0.21475372  0.86762018  0.48831568    -0.64420
N253        N  0.20168150  0.95898750  0.50835152    -0.06250
N254        N  0.21114266  0.99297826  0.50881042    -0.65110
Mn255      Mn  0.15941629  0.88760114  0.45939739     1.10660
C256        C  0.20337916  0.99974981  0.46862280     0.97870
C257        C  0.23892022  0.87674953  0.52002137     0.97940
N258        N  0.12053438  0.87723564  0.62618897    -0.07360
N259        N  0.11140835  0.86528239  0.66572083    -0.62740
N260        N  0.15605304  0.95809894  0.58654629    -0.06680
N261        N  0.17108376  0.99215462  0.57782604    -0.59470
N262        N  0.12196941  0.94476462  0.58713353    -0.07990
N263        N  0.11384149  0.96950339  0.57602380    -0.62300
N264        N  0.15457101  0.89187256  0.62191348    -0.06980
N265        N  0.16909784  0.89161151  0.65959924    -0.59490
Mn266      Mn  0.08631879  0.88684085  0.58318452     1.20190
Mn267      Mn  0.18004286  0.92569290  0.56621208     1.10090
Cl268      Cl  0.12344670  0.88666482  0.52202179    -0.87460
C269        C  0.14165866  0.87439329  0.68649086     0.94870
C270        C  0.14487610  0.99923830  0.56996772     0.94670
N271        N  0.39797505  0.25886600  0.20621883    -0.07610
N272        N  0.38798492  0.27406923  0.23639715    -0.59730
N273        N  0.39174479  0.24517596  0.09756047    -0.07290
N274        N  0.38113702  0.25276605  0.06068899    -0.61860
N275        N  0.36510579  0.22058172  0.11882463    -0.06890
N276        N  0.33587333  0.21038796  0.09631423    -0.59710
N277        N  0.42448376  0.28307182  0.18447347    -0.06570
N278        N  0.43358083  0.31512304  0.19965313    -0.62210
C279        C  0.41075633  0.30915447  0.23193304     0.94560
C280        C  0.34625895  0.23050096  0.05997794     0.94340
N281        N  0.48082320  0.23570218  0.07264233    -0.07800
N282        N  0.48818717  0.22888481  0.03315043    -0.60310
N283        N  0.49632014  0.29328414  0.15703889    -0.05920
N284        N  0.51246442  0.32420364  0.17787224    -0.61560
N285        N  0.51364383  0.27573778  0.16120652    -0.07830
N286        N  0.54203346  0.29472430  0.18547784    -0.60580
N287        N  0.46461405  0.25452691  0.07000271    -0.05560
N288        N  0.46059610  0.26075316  0.02912767    -0.61650
Mn289      Mn  0.44479292  0.26989202  0.12647653     1.18440
C290        C  0.47575861  0.24515452  0.00639873     0.96640
C291        C  0.54111723  0.32510887  0.19548784     0.97310
N292        N  0.34971972  0.14901180  0.15827326    -0.07850
N293        N  0.32404996  0.13595537  0.12942911    -0.64160
N294        N  0.40009486  0.16682076  0.24887001    -0.06650
N295        N  0.40803824  0.16303445  0.28917931    -0.64830
N296        N  0.38418267  0.18596226  0.24787626    -0.07360
N297        N  0.38131872  0.19578881  0.28805588    -0.64420
N298        N  0.36599619  0.13025008  0.15840015    -0.06250
N299        N  0.35134012  0.10398670  0.12901752    -0.65110
Mn300      Mn  0.37298074  0.20308132  0.18416625     1.10660
C301        C  0.32472319  0.10760716  0.11163022     0.97870
C302        C  0.39582013  0.18067832  0.31352853     0.97940
N303        N  0.49886658  0.20325851  0.19987687    -0.07360
N304        N  0.52956406  0.21177244  0.21651182    -0.62740
N305        N  0.43646459  0.13833442  0.13178877    -0.06680
N306        N  0.43085289  0.10547757  0.13062997    -0.59470
N307        N  0.46821503  0.16073363  0.11890857    -0.07990
N308        N  0.48557886  0.14271528  0.11446061    -0.62300
N309        N  0.47366851  0.17612377  0.21991732    -0.06980
N310        N  0.48771538  0.16551612  0.25115353    -0.59490
Mn311      Mn  0.49122464  0.21942595  0.13687258     1.20190
Mn312      Mn  0.41831666  0.15199850  0.19050593     1.10090
Cl313      Cl  0.43187445  0.21112126  0.15952628    -0.87460
C314        C  0.52281351  0.18871046  0.24892879     0.94870
C315        C  0.46158111  0.10787472  0.12112330     0.94670
N316        N  0.41785544  0.27253630  0.70947233    -0.07610
N317        N  0.41990949  0.29513650  0.74005016    -0.59730
N318        N  0.37997864  0.23241490  0.61185124    -0.07290
N319        N  0.35992212  0.21644944  0.57729678    -0.61860
N320        N  0.36204133  0.21981455  0.64772494    -0.06890
N321        N  0.32948548  0.19708236  0.63785159    -0.59710
N322        N  0.43461349  0.28952775  0.67461306    -0.06570
N323        N  0.44905329  0.32407632  0.68080773    -0.62210
C324        C  0.43953994  0.32710727  0.72151779     0.94560
C325        C  0.32813647  0.19404660  0.59402476     0.94340
N326        N  0.45962199  0.21895690  0.55737969    -0.07800
N327        N  0.45836731  0.20573775  0.51772372    -0.60310
N328        N  0.49367736  0.29087995  0.62439251    -0.05920
N329        N  0.51073864  0.32341692  0.64061329    -0.61560
N330        N  0.51171739  0.27412336  0.62958192    -0.07830
N331        N  0.54151987  0.29551844  0.65053285    -0.60580
N332        N  0.44217035  0.23652572  0.55765572    -0.05560
N333        N  0.42916736  0.23611428  0.51880539    -0.61650
Mn334      Mn  0.43739799  0.26293689  0.61555821     1.18440
C335        C  0.43955017  0.21713388  0.49395372     0.96640
C336        C  0.54066314  0.32652181  0.65645777     0.97310
N337        N  0.35651045  0.15686214  0.70190038    -0.07850
N338        N  0.32536211  0.14101219  0.68351241    -0.64160
N339        N  0.42825562  0.18919024  0.76321296    -0.06650
N340        N  0.44447853  0.19041027  0.79981461    -0.64830
N341        N  0.41396133  0.20970400  0.76568995    -0.07360
N342        N  0.42000325  0.22519912  0.80459657    -0.64420
N343        N  0.37229217  0.13814779  0.69446483    -0.06250
N344        N  0.35251266  0.11044410  0.66878947    -0.65110
Mn345      Mn  0.38705048  0.21519137  0.70807397     1.10660
C346        C  0.32293925  0.11234279  0.66208210     0.97870
C347        C  0.43895857  0.21259872  0.82558961     0.97940
N348        N  0.50699897  0.20872629  0.68010132    -0.07360
N349        N  0.53934441  0.21547992  0.68576082    -0.62740
N350        N  0.43161616  0.13727976  0.64365755    -0.06680
N351        N  0.42194584  0.10335948  0.64315163    -0.59470
N352        N  0.45599216  0.15453063  0.61479572    -0.07990
N353        N  0.46466337  0.13194018  0.59609896    -0.62300
N354        N  0.48682370  0.18695039  0.71007794    -0.06980
N355        N  0.50532307  0.17796753  0.73615994    -0.59490
Mn356      Mn  0.48484765  0.21456915  0.61893467     1.20190
Mn357      Mn  0.42919413  0.16216219  0.70366754     1.10090
Cl358      Cl  0.43468358  0.21364440  0.66138380    -0.87460
C359        C  0.53820995  0.19608022  0.72050989     0.94870
C360        C  0.44238837  0.09975654  0.61370448     0.94670
N361        N  0.38427433  0.81630714  0.30156067    -0.07610
N362        N  0.36295922  0.78162038  0.30481274    -0.59730
N363        N  0.41140740  0.87935160  0.22830101    -0.07290
N364        N  0.40889042  0.89038135  0.18930422    -0.61860
N365        N  0.43163251  0.86457333  0.22764768    -0.06890
N366        N  0.44307145  0.86549956  0.18745886    -0.59710
N367        N  0.36634168  0.83341930  0.30304863    -0.06570
N368        N  0.33267026  0.81075961  0.30719100    -0.62210
C369        C  0.33083380  0.77846191  0.30884626     0.94560
C370        C  0.42842495  0.88155632  0.16372782     0.94340
N371        N  0.44004053  0.97184696  0.29778028    -0.07800
N372        N  0.45512539  0.00340325  0.27956721    -0.60310
N373        N  0.37555022  0.90327097  0.35265072    -0.05920
N374        N  0.34527221  0.88762602  0.37297845    -0.61560
N375        N  0.39928778  0.92835039  0.37798101    -0.07830
N376        N  0.38592991  0.93039702  0.41551765    -0.60580
N377        N  0.41739567  0.94777747  0.27070059    -0.05560
N378        N  0.41674865  0.96274378  0.23326314    -0.61650
Mn379      Mn  0.39119694  0.89052878  0.28836092     1.18440
C380        C  0.44031154  0.99773771  0.23944278     0.96640
C381        C  0.35218465  0.90519314  0.41204218     0.97310
N382        N  0.50102387  0.86780522  0.28477525    -0.07850
N383        N  0.51879668  0.84999632  0.28876720    -0.64160
N384        N  0.47806528  0.85233008  0.37771776    -0.06650
N385        N  0.49039041  0.83526943  0.40180189    -0.64830
N386        N  0.45179024  0.82895959  0.35349170    -0.07360
N387        N  0.44519838  0.79647448  0.36154886    -0.64420
N388        N  0.52094572  0.90014824  0.30038686    -0.06250
N389        N  0.55292805  0.90625436  0.30685946    -0.65110
Mn390      Mn  0.44185132  0.84394462  0.29033624     1.10660
C391        C  0.55168072  0.87475929  0.30227113     0.97870
C392        C  0.46938491  0.80022539  0.39112617     0.97940
N393        N  0.46757778  0.94073664  0.42234313    -0.07360
N394        N  0.45638629  0.94143424  0.46213437    -0.62740
N395        N  0.52628581  0.96688636  0.33928721    -0.06680
N396        N  0.55259611  0.98195209  0.31191950    -0.59470
N397        N  0.50803041  0.98363591  0.33852810    -0.07990
N398        N  0.52141258  0.00998883  0.31041785    -0.62300
N399        N  0.48507471  0.92324538  0.42213948    -0.06980
N400        N  0.48647421  0.91204617  0.46164195    -0.59490
Mn401      Mn  0.45400952  0.95738301  0.36032136     1.20190
Mn402      Mn  0.50298041  0.91106511  0.36101162     1.10090
Cl403      Cl  0.44719608  0.90036294  0.32517711    -0.87460
C404        C  0.46878974  0.92385034  0.48656338     0.94870
C405        C  0.54939397  0.00891104  0.29437250     0.94670
N406        N  0.38629912  0.82924505  0.80872301    -0.07610
N407        N  0.36645205  0.79453322  0.81233288    -0.59730
N408        N  0.41213458  0.88800288  0.73103399    -0.07290
N409        N  0.41039226  0.89676490  0.69036664    -0.61860
N410        N  0.43308250  0.87413747  0.73401630    -0.06890
N411        N  0.44553521  0.87300269  0.69515302    -0.59710
N412        N  0.36695023  0.84468325  0.80662565    -0.06570
N413        N  0.33355708  0.82095524  0.80763003    -0.62210
C414        C  0.33379837  0.78994774  0.81152472     0.94560
C415        C  0.43087818  0.88694725  0.66804328     0.94340
N416        N  0.43424912  0.98134183  0.79237623    -0.07800
N417        N  0.44726685  0.01057113  0.76865045    -0.60310
N418        N  0.37132385  0.91351496  0.85209947    -0.05920
N419        N  0.34129081  0.89647671  0.87295149    -0.61560
N420        N  0.39392851  0.94051184  0.87628539    -0.07830
N421        N  0.37986074  0.94231467  0.91356925    -0.60580
N422        N  0.41162103  0.95418953  0.76879458    -0.05560
N423        N  0.40865024  0.96398253  0.72923093    -0.61650
Mn424      Mn  0.38915297  0.89975246  0.78948519     1.18440
C425        C  0.43060571  0.99920860  0.72929717     0.96640
C426        C  0.34697703  0.91468466  0.91148721     0.97310
N427        N  0.50199943  0.88275825  0.79336211    -0.07850
N428        N  0.51944821  0.86462538  0.79479624    -0.64160
N429        N  0.47777303  0.87046231  0.88754990    -0.06650
N430        N  0.48853910  0.85341384  0.91414142    -0.64830
N431        N  0.45061716  0.84690454  0.86503114    -0.07360
N432        N  0.44082436  0.81456343  0.87767988    -0.64420
N433        N  0.52221115  0.91459478  0.81029391    -0.06250
N434        N  0.55372202  0.91956275  0.81809724    -0.65110
Mn435      Mn  0.44304066  0.85795924  0.79908393     1.10660
C436        C  0.55204281  0.88821809  0.80991501     0.97870
C437        C  0.46475202  0.81827503  0.90754098     0.97940
N438        N  0.46290756  0.95643047  0.92298415    -0.07360
N439        N  0.44833174  0.95311624  0.96180481    -0.62740
N440        N  0.52357219  0.98265704  0.84115939    -0.06680
N441        N  0.55125277  0.99832306  0.81610027    -0.59470
N442        N  0.50424241  0.99814075  0.83696032    -0.07990
N443        N  0.51843894  0.02428675  0.80848519    -0.62300
N444        N  0.48265222  0.94135937  0.92384567    -0.06980
N445        N  0.48240191  0.92828340  0.96241306    -0.59490
Mn446      Mn  0.44929762  0.97111379  0.85831031     1.20190
Mn447      Mn  0.50215826  0.92811192  0.86644199     1.10090
Cl448      Cl  0.44575305  0.91425412  0.82805442    -0.87460
C449        C  0.46105508  0.93561050  0.98626466     0.94870
C450        C  0.54810966  0.02451881  0.79625961     0.94670
N451        N  0.73479800  0.25873101  0.14801791    -0.07610
N452        N  0.72076647  0.27938673  0.15464742    -0.59730
N453        N  0.77156203  0.23098939  0.07350296    -0.07290
N454        N  0.78428759  0.23066499  0.03464000    -0.61860
N455        N  0.73728094  0.21034073  0.07324617    -0.06890
N456        N  0.72640393  0.19610925  0.03375700    -0.59710
N457        N  0.76896481  0.27778673  0.14931108    -0.06570
N458        N  0.77893066  0.31159187  0.15676343    -0.62210
C459        C  0.74866228  0.31215169  0.16059947     0.94560
C460        C  0.75602289  0.20925022  0.00981114     0.94340
N461        N  0.83963265  0.21183557  0.14581171    -0.07800
N462        N  0.86689074  0.20843083  0.13560085    -0.60310
N463        N  0.83167787  0.27501207  0.19823956    -0.05920
N464        N  0.85069209  0.30783762  0.21401716    -0.61560
N465        N  0.83391762  0.25219141  0.22459717    -0.07830
N466        N  0.85421458  0.26898553  0.25853087    -0.60580
N467        N  0.83649168  0.23372017  0.11915633    -0.05560
N468        N  0.86153875  0.24575957  0.09011419    -0.61650
Mn469      Mn  0.80259018  0.25555717  0.13437932     1.18440
C470        C  0.87989419  0.22926240  0.10045202     0.96640
C471        C  0.86438525  0.30373940  0.25204691     0.97310
N472        N  0.67563832  0.14132511  0.12908102    -0.07850
N473        N  0.64138582  0.12296521  0.13597424    -0.64160
N474        N  0.68268325  0.16643291  0.22414808    -0.06650
N475        N  0.65927821  0.15897510  0.25547318    -0.64830
N476        N  0.68240114  0.19067384  0.19856181    -0.07360
N477        N  0.65965452  0.20023225  0.21159290    -0.64420
N478        N  0.68940274  0.12215974  0.14292816    -0.06250
N479        N  0.66503126  0.08918805  0.14877492    -0.65110
Mn480      Mn  0.70728027  0.20072560  0.13569179     1.10660
C481        C  0.63506628  0.09019370  0.14896802     0.97870
C482        C  0.64543035  0.18077309  0.24739969     0.97940
N483        N  0.78069615  0.18009876  0.26760890    -0.07360
N484        N  0.79242445  0.19186423  0.30762662    -0.62740
N485        N  0.75083844  0.11987514  0.18150237    -0.06680
N486        N  0.74019111  0.09340776  0.15267884    -0.59470
N487        N  0.78500612  0.13930753  0.18029298    -0.07990
N488        N  0.79763363  0.12610503  0.15026388    -0.62300
N489        N  0.74651379  0.16145903  0.26729383    -0.06980
N490        N  0.73433116  0.16011610  0.30704251    -0.59490
Mn491      Mn  0.81032861  0.19515802  0.20590863     1.20190
Mn492      Mn  0.71715298  0.14191554  0.20526721     1.10090
Cl493      Cl  0.75947182  0.19908547  0.17093388    -0.87460
C494        C  0.76328676  0.17885033  0.33219267     0.94870
C495        C  0.76931465  0.09688068  0.13333904     0.94670
N496        N  0.74542468  0.25989664  0.66095260    -0.07610
N497        N  0.73176017  0.28095346  0.66699447    -0.59730
N498        N  0.77928266  0.23462340  0.58014876    -0.07290
N499        N  0.79063975  0.23588126  0.53998982    -0.61860
N500        N  0.74493123  0.21505276  0.58086127    -0.06890
N501        N  0.73251381  0.20308654  0.54110181    -0.59710
N502        N  0.77946385  0.27846888  0.66124871    -0.06570
N503        N  0.78984150  0.31257898  0.66714916    -0.62210
C504        C  0.75980759  0.31378014  0.67138103     0.94560
C505        C  0.76128595  0.21656930  0.51569681     0.94340
N506        N  0.84657830  0.20880775  0.64565942    -0.07800
N507        N  0.87576696  0.20875716  0.63647827    -0.60310
N508        N  0.83888831  0.26830905  0.70667994    -0.05920
N509        N  0.85635525  0.29948272  0.72700773    -0.61560
N510        N  0.84081556  0.24350663  0.72950470    -0.07830
N511        N  0.85966135  0.25727765  0.76535481    -0.60580
N512        N  0.84380180  0.23274297  0.62237197    -0.05560
N513        N  0.87102961  0.24947351  0.59709519    -0.61650
Mn514      Mn  0.81087664  0.25455996  0.64204563     1.18440
C515        C  0.89065349  0.23421821  0.60622277     0.96640
C516        C  0.86925732  0.29221008  0.76351153     0.97310
N517        N  0.68324684  0.14430459  0.63209625    -0.07850
N518        N  0.64900499  0.12895139  0.63837237    -0.64160
N519        N  0.69235795  0.16172119  0.72784605    -0.06650
N520        N  0.66417494  0.14949274  0.75258306    -0.64830
N521        N  0.69773096  0.19158169  0.71004905    -0.07360
N522        N  0.67576924  0.20139419  0.72454238    -0.64420
N523        N  0.69362962  0.12142697  0.64284950    -0.06250
N524        N  0.66656227  0.08973865  0.64838702    -0.65110
Mn525      Mn  0.71766164  0.20296021  0.64480082     1.10660
C526        C  0.63883118  0.09486339  0.64960331     0.97870
C527        C  0.65401700  0.17476763  0.75024158     0.97940
N528        N  0.78696248  0.16971488  0.76659260    -0.07360
N529        N  0.79755412  0.18138049  0.80707901    -0.62740
N530        N  0.75666827  0.11484301  0.67342244    -0.06680
N531        N  0.74668403  0.09023460  0.64195957    -0.59470
N532        N  0.79093150  0.13399286  0.67428099    -0.07990
N533        N  0.80438268  0.12258420  0.64337386    -0.62300
N534        N  0.75284956  0.15078052  0.76506531    -0.06980
N535        N  0.73963121  0.14914956  0.80415771    -0.59490
Mn536      Mn  0.81691562  0.18810093  0.70515906     1.20190
Mn537      Mn  0.72381232  0.13617079  0.70301149     1.10090
Cl538      Cl  0.76745288  0.19559464  0.67362487    -0.87460
C539        C  0.76770719  0.16788462  0.83048710     0.94870
C540        C  0.77664031  0.09478905  0.62348373     0.94670
N541        N  0.03831711  0.21898711  0.04578621    -0.07610
N542        N  0.02163858  0.23002641  0.07146145    -0.59730
N543        N  0.02665625  0.15342734  0.98237875    -0.07290
N544        N  0.99349621  0.13084737  0.97268000    -0.61860
N545        N  0.03315213  0.14816696  0.02284493    -0.06890
N546        N  0.00535384  0.12182867  0.04028477    -0.59710
N547        N  0.03444253  0.22509686  0.00484708    -0.06570
N548        N  0.01490846  0.24049275  0.00182637    -0.62210
C549        C  0.00756155  0.24388391  0.04388330     0.94560
C550        C  0.98060050  0.11145797  0.00929111     0.94340
N551        N  0.11954042  0.20912705  0.90425958    -0.07800
N552        N  0.13139633  0.20886203  0.86516967    -0.60310
N553        N  0.08371887  0.26034094  0.92533801    -0.05920
N554        N  0.06924577  0.27540122  0.90201156    -0.61560
N555        N  0.11778915  0.27807157  0.92217859    -0.07830
N556        N  0.12703788  0.30580789  0.89649370    -0.60580
N557        N  0.08502132  0.19333067  0.90348067    -0.05560
N558        N  0.07373592  0.18401009  0.86283549    -0.61650
Mn559      Mn  0.05700732  0.20738210  0.95346101     1.18440
C560        C  0.10295922  0.19358804  0.83934110     0.96640
C561        C  0.09640506  0.30410828  0.88441469     0.97310
N562        N  0.09815373  0.16586604  0.08193838    -0.07850
N563        N  0.08718625  0.13173251  0.08825792    -0.64160
N564        N  0.13197375  0.25133878  0.11047102    -0.06650
N565        N  0.14303992  0.26085383  0.15111498    -0.64830
N566        N  0.09781537  0.23529011  0.10937871    -0.07360
N567        N  0.08549557  0.23536311  0.14812943    -0.64420
N568        N  0.13241168  0.18364956  0.08073325    -0.06250
N569        N  0.14544169  0.16200484  0.08633730    -0.65110
Mn570      Mn  0.06702551  0.19191797  0.06511592     1.10660
C571        C  0.11695211  0.12971069  0.09120217     0.97870
C572        C  0.11363015  0.25070951  0.17446156     0.97940
N573        N  0.17723986  0.29919861  0.99286924    -0.07360
N574        N  0.20000496  0.33028125  0.97815192    -0.62740
N575        N  0.18640431  0.22650119  0.01062890    -0.06680
N576        N  0.21270760  0.22117732  0.01975160    -0.59470
N577        N  0.18597424  0.23399994  0.96932031    -0.07990
N578        N  0.21324602  0.23461830  0.94968354    -0.62300
N579        N  0.18603017  0.29435934  0.03236253    -0.06980
N580        N  0.21705682  0.32153471  0.04306281    -0.59490
Mn581      Mn  0.15035779  0.25504098  0.94700216     1.20190
Mn582      Mn  0.15958388  0.23942622  0.05942477     1.10090
Cl583      Cl  0.10847759  0.22317140  0.00589410    -0.87460
C584        C  0.22533751  0.34366592  0.00850258     0.94870
C585        C  0.22912813  0.22571438  0.98172380     0.94670
N586        N  0.04942227  0.23613897  0.55260195    -0.07610
N587        N  0.03677879  0.25094604  0.57925274    -0.59730
N588        N  0.02330054  0.16442870  0.49066230    -0.07290
N589        N  0.99060350  0.14060199  0.48061920    -0.61860
N590        N  0.03025796  0.15969302  0.53099615    -0.06890
N591        N  0.00293943  0.13284843  0.54866019    -0.59710
N592        N  0.04372785  0.24121535  0.51188121    -0.06570
N593        N  0.02649340  0.25905232  0.51014565    -0.62210
C594        C  0.02267456  0.26543360  0.55249795     0.94560
C595        C  0.97823515  0.12076491  0.51711564     0.94340
N596        N  0.10839944  0.20284934  0.40456352    -0.07800
N597        N  0.11613164  0.19718112  0.36521022    -0.60310
N598        N  0.09029752  0.26773828  0.42700701    -0.05920
N599        N  0.08038777  0.28762175  0.40518016    -0.61560
N600        N  0.12356260  0.27881880  0.42064509    -0.07830
N601        N  0.13700678  0.30626258  0.39427359    -0.60580
N602        N  0.07505657  0.19330478  0.40685245    -0.05560
N603        N  0.06057153  0.18315585  0.36771598    -0.61650
Mn604      Mn  0.05724499  0.21630007  0.45858612     1.18440
C605        C  0.08658030  0.18570651  0.34178151     0.96640
C606        C  0.10972669  0.31125399  0.38471072     0.97310
N607        N  0.09684843  0.16894079  0.58109365    -0.07850
N608        N  0.08315954  0.13425358  0.57352771    -0.64160
N609        N  0.14329179  0.25666885  0.60871999    -0.06650
N610        N  0.15775272  0.26643101  0.64800895    -0.64830
N611        N  0.10949259  0.24419778  0.61160842    -0.07360
N612        N  0.10095985  0.24714057  0.65175731    -0.64420
N613        N  0.13110815  0.18395075  0.58151202    -0.06250
N614        N  0.14066341  0.15955871  0.57717487    -0.65110
Mn615      Mn  0.07138807  0.20197089  0.56973508     1.10660
C616        C  0.11092519  0.12852085  0.57108198     0.97870
C617        C  0.13095372  0.26073778  0.67455764     0.97940
N618        N  0.18565105  0.29215766  0.48212335    -0.07360
N619        N  0.20925832  0.32257723  0.46639366    -0.62740
N620        N  0.18005784  0.21519120  0.50209549    -0.06680
N621        N  0.18452229  0.18756036  0.50785042    -0.59470
N622        N  0.17069222  0.21551209  0.46152388    -0.07990
N623        N  0.16691659  0.18705751  0.43999778    -0.62300
N624        N  0.19216963  0.28960938  0.52350345    -0.06980
N625        N  0.22125864  0.31822331  0.53624801    -0.59490
Mn626      Mn  0.14771875  0.24767558  0.44211725     1.20190
Mn627      Mn  0.16285572  0.23761395  0.55500895     1.10090
Cl628      Cl  0.10970108  0.22604537  0.50634028    -0.87460
C629        C  0.23097382  0.33882310  0.50033009     0.94870
C630        C  0.17548242  0.16945977  0.46947051     0.94670
N631        N  0.82364680  0.89978934  0.95980324    -0.07610
N632        N  0.85746921  0.91345484  0.96643080    -0.59730
N633        N  0.76272090  0.86747191  0.88485944    -0.07290
N634        N  0.75219028  0.85528194  0.84491597    -0.61860
N635        N  0.77634846  0.90248401  0.88657377    -0.06890
N636        N  0.77573613  0.91454112  0.84709144    -0.59710
N637        N  0.80830885  0.86498788  0.95962543    -0.06570
N638        N  0.83141740  0.85411254  0.96529110    -0.62210
C639        C  0.86206399  0.88476173  0.96950988     0.94560
C640        C  0.76057233  0.88459621  0.82144030     0.94340
N641        N  0.67345724  0.80254910  0.94860449    -0.07800
N642        N  0.64374014  0.78737888  0.92588884    -0.60310
N643        N  0.74137021  0.80352220  0.00512969    -0.05920
N644        N  0.75586549  0.78599304  0.02330492    -0.61560
N645        N  0.71639890  0.80187277  0.03012932    -0.07830
N646        N  0.71340733  0.78334816  0.06528373    -0.60580
N647        N  0.69872454  0.80441464  0.92422174    -0.05560
N648        N  0.68703458  0.79067112  0.88515659    -0.61650
Mn649      Mn  0.75331362  0.83413250  0.94327795     1.18440
C650        C  0.65273353  0.77992483  0.88622846     0.96640
C651        C  0.73807003  0.77347950  0.06109417     0.97310
N652        N  0.77311189  0.96853567  0.95013073    -0.07850
N653        N  0.79007395  0.00253434  0.96421441    -0.64160
N654        N  0.78980800  0.95809522  0.03681357    -0.06650
N655        N  0.80985126  0.99122726  0.05207155    -0.64830
N656        N  0.81010828  0.94791373  0.01734116    -0.07360
N657        N  0.84304806  0.97073146  0.02347895    -0.64420
N658        N  0.74024354  0.95582479  0.96030278    -0.06250
N659        N  0.73382441  0.98164858  0.97132213    -0.65110
Mn660      Mn  0.79583568  0.93003165  0.95160890     1.10660
C661        C  0.76504239  0.01050025  0.97789842     0.97870
C662        C  0.84325323  0.99843888  0.04334868     0.97940
N663        N  0.70481845  0.85954491  0.07822799    -0.07360
N664        N  0.70733842  0.84810916  0.11748199    -0.62740
N665        N  0.67592200  0.89381475  0.99585460    -0.06680
N666        N  0.66045343  0.90543628  0.96833060    -0.59470
N667        N  0.65992586  0.85880257  0.99441723    -0.07990
N668        N  0.63350542  0.84642814  0.96622363    -0.62300
N669        N  0.72083424  0.89454374  0.07870685    -0.06980
N670        N  0.73385411  0.90735092  0.11783658    -0.59490
Mn671      Mn  0.68693318  0.82947917  0.01425450     1.20190
Mn672      Mn  0.73105840  0.92564571  0.01911160     1.10090
Cl673      Cl  0.74172086  0.87959620  0.98194772    -0.87460
C674        C  0.72509027  0.87833562  0.14218616     0.94870
C675        C  0.63367834  0.87566241  0.95032935     0.94670
N676        N  0.83728098  0.90325366  0.46497183    -0.07610
N677        N  0.87078018  0.91872845  0.47517445    -0.59730
N678        N  0.77999434  0.86787399  0.38476410    -0.07290
N679        N  0.76953958  0.85577878  0.34462042    -0.61860
N680        N  0.79110673  0.90249524  0.38694926    -0.06890
N681        N  0.78852568  0.91418728  0.34798877    -0.59710
N682        N  0.82378813  0.86857778  0.46482833    -0.06570
N683        N  0.84787398  0.85966555  0.47401283    -0.62210
C684        C  0.87714732  0.89130339  0.48035658     0.94560
C685        C  0.77528240  0.88471926  0.32160803     0.94340
N686        N  0.68996131  0.79745728  0.44138531    -0.07800
N687        N  0.66150036  0.77836986  0.41726911    -0.60310
N688        N  0.75638011  0.80291359  0.50663393    -0.05920
N689        N  0.77085426  0.78626233  0.52744026    -0.61560
N690        N  0.72893416  0.79908387  0.52825029    -0.07830
N691        N  0.72438676  0.78006280  0.56355664    -0.60580
N692        N  0.71738345  0.80094239  0.42039000    -0.05560
N693        N  0.70853598  0.78433810  0.38225452    -0.61650
Mn694      Mn  0.77024222  0.83437641  0.44406026     1.18440
C695        C  0.67373291  0.77055398  0.38039800     0.96640
C696        C  0.75066434  0.77217051  0.56339731     0.97310
N697        N  0.78118252  0.96596765  0.44639528    -0.07850
N698        N  0.79721353  0.00075405  0.45692803    -0.64160
N699        N  0.79426919  0.95574857  0.53691024    -0.06650
N700        N  0.81060318  0.98762790  0.55671467    -0.64830
N701        N  0.81791823  0.95048867  0.51716022    -0.07360
N702        N  0.84954171  0.97585950  0.52598194    -0.64420
N703        N  0.74836590  0.95252254  0.45760744    -0.06250
N704        N  0.74105651  0.97784588  0.46805165    -0.65110
Mn705      Mn  0.80693899  0.93052348  0.45200339     1.10660
C706        C  0.77157962  0.00797620  0.47034465     0.97870
C707        C  0.84541045  0.99940529  0.55021347     0.97940
N708        N  0.70921086  0.85317729  0.57135200    -0.07360
N709        N  0.70825070  0.84134504  0.61145181    -0.62740
N710        N  0.68340457  0.88633779  0.48639249    -0.06680
N711        N  0.66716915  0.89790071  0.46021931    -0.59470
N712        N  0.66921950  0.85153025  0.48227815    -0.07990
N713        N  0.64324471  0.83927658  0.45313659    -0.62300
N714        N  0.72432929  0.88812052  0.57245295    -0.06980
N715        N  0.73347635  0.90060484  0.61255857    -0.59490
Mn716      Mn  0.69756983  0.82407776  0.50674971     1.20190
Mn717      Mn  0.73690460  0.92030312  0.51433726     1.10090
Cl718      Cl  0.75293031  0.87718541  0.47931387    -0.87460
C719        C  0.72316711  0.87138362  0.63689027     0.94870
C720        C  0.64197280  0.86856371  0.43954080     0.94670
N721        N  0.49384316  0.63381725  0.42144469    -0.07610
N722        N  0.51018195  0.66910157  0.42117215    -0.59730
N723        N  0.45511404  0.55379321  0.46634933    -0.07290
N724        N  0.44574521  0.54143132  0.50572485    -0.61860
N725        N  0.48860699  0.56541264  0.46066538    -0.06890
N726        N  0.50286905  0.56217343  0.49741398    -0.59710
N727        N  0.46048067  0.62159867  0.42881757    -0.06570
N728        N  0.45366576  0.64792049  0.43455636    -0.62210
C729        C  0.48487874  0.67753185  0.43067939     0.94560
C730        C  0.47536106  0.54642318  0.52484728     0.94340
N731        N  0.37520640  0.49252990  0.37926301    -0.07800
N732        N  0.35140546  0.45896507  0.38510351    -0.60310
N733        N  0.38812514  0.57431107  0.37975513    -0.05920
N734        N  0.36290119  0.57918938  0.39553607    -0.61560
N735        N  0.37914063  0.55905170  0.34076974    -0.07830
N736        N  0.34793357  0.55382860  0.32998891    -0.60580
N737        N  0.38557696  0.50908956  0.41717386    -0.05560
N738        N  0.36919481  0.48767701  0.44938441    -0.61650
Mn739      Mn  0.42238960  0.56514503  0.42342318     1.18440
C740        C  0.34831176  0.45648362  0.42912395     0.96640
C741        C  0.33786067  0.56624367  0.36442652     0.97310
N742        N  0.53211923  0.55966881  0.37327461    -0.07850
N743        N  0.56381121  0.56558169  0.36167958    -0.64160
N744        N  0.52727149  0.61000909  0.30547296    -0.06650
N745        N  0.54910637  0.63273082  0.27665358    -0.64830
N746        N  0.53388354  0.62550929  0.34399756    -0.07360
N747        N  0.55931201  0.65830754  0.34289094    -0.64420
N748        N  0.50935421  0.53413225  0.34797535    -0.06250
N749        N  0.52334172  0.51752224  0.32778640    -0.65110
Mn750      Mn  0.51322259  0.59648475  0.40131319     1.10660
C751        C  0.55751843  0.53831263  0.33296027     0.97870
C752        C  0.56842266  0.66292599  0.30089593     0.97940
N753        N  0.42283503  0.55413815  0.25860433    -0.07360
N754        N  0.41038954  0.56148822  0.22289923    -0.62740
N755        N  0.44718577  0.49633979  0.29123204    -0.06680
N756        N  0.45352875  0.46988650  0.28413219    -0.59470
N757        N  0.41415150  0.48432798  0.29921191    -0.07990
N758        N  0.39708125  0.44910083  0.29799592    -0.62300
N759        N  0.45649875  0.56602775  0.25440309    -0.06980
N760        N  0.46771490  0.58178458  0.21702730    -0.59490
Mn761      Mn  0.39682616  0.52216243  0.31826854     1.20190
Mn762      Mn  0.48588002  0.55218649  0.29898123     1.10090
Cl763      Cl  0.45439366  0.55946179  0.36024406    -0.87460
C764        C  0.43916531  0.57953509  0.19773897     0.94870
C765        C  0.42229376  0.44054209  0.28889846     0.94670
N766        N  0.40396476  0.49168533  0.92233525    -0.07610
N767        N  0.38790121  0.47179887  0.95631835    -0.59730
N768        N  0.42583402  0.48228086  0.82059824    -0.07290
N769        N  0.42262195  0.45871104  0.79068697    -0.61860
N770        N  0.44818775  0.48505249  0.85089294    -0.06890
N771        N  0.46101021  0.46377788  0.84247731    -0.59710
N772        N  0.38111451  0.48886359  0.89242355    -0.06570
N773        N  0.34927944  0.46763462  0.90573071    -0.62210
C774        C  0.35362596  0.45734636  0.94574518     0.94560
C775        C  0.44478713  0.44759036  0.80497895     0.94340
N776        N  0.43198708  0.57082708  0.75872966    -0.07800
N777        N  0.44781514  0.57968960  0.72069687    -0.60310
N778        N  0.36753606  0.53913037  0.83361360    -0.05920
N779        N  0.33447055  0.52487934  0.84414821    -0.61560
N780        N  0.38175023  0.57376135  0.83002425    -0.07830
N781        N  0.35804500  0.58370753  0.83814337    -0.60580
N782        N  0.41625643  0.53603359  0.76312673    -0.05560
N783        N  0.42096107  0.52079667  0.72821938    -0.61650
Mn784      Mn  0.39664452  0.51083941  0.82650436     1.18440
C785        C  0.44046207  0.54814185  0.70176010     0.96640
C786        C  0.32862477  0.55271933  0.84724724     0.97310
N787        N  0.51428154  0.54806107  0.88262042    -0.07850
N788        N  0.52769457  0.53349556  0.85580901    -0.64160
N789        N  0.48719284  0.59096546  0.95680736    -0.06650
N790        N  0.48467220  0.60770916  0.99171262    -0.64830
N791        N  0.47033201  0.55643152  0.96218102    -0.07360
N792        N  0.45550631  0.54887292  0.00087406    -0.64420
N793        N  0.52997298  0.58268993  0.87714352    -0.06250
N794        N  0.55399446  0.59170220  0.84668846    -0.65110
Mn795      Mn  0.45988858  0.51990478  0.90654869     1.10660
C796        C  0.55286710  0.56101058  0.83359523     0.97870
C797        C  0.46482137  0.58117975  0.01888021     0.97940
N798        N  0.44832011  0.63791612  0.87516843    -0.07360
N799        N  0.43784231  0.66130286  0.88200837    -0.62740
N800        N  0.51822758  0.63740438  0.82974310    -0.06680
N801        N  0.55002360  0.66291527  0.82318397    -0.59470
N802        N  0.49600605  0.63948326  0.80277819    -0.07990
N803        N  0.51289670  0.66831597  0.77853160    -0.62300
N804        N  0.47404483  0.64369246  0.90217182    -0.06980
N805        N  0.48203905  0.67211814  0.92701303    -0.59490
Mn806      Mn  0.43875121  0.60608043  0.81543427     1.20190
Mn807      Mn  0.50338928  0.61401155  0.89272185     1.10090
Cl808      Cl  0.44936632  0.56277758  0.86044287    -0.87460
C809        C  0.45877687  0.68258842  0.91447232     0.94870
C810        C  0.54692371  0.68210108  0.79115962     0.94670
C811        C  0.47657016  0.54409293  0.57260301    -0.07620
C812        C  0.45004709  0.51304926  0.59094559    -0.18750
C813        C  0.43892311  0.51278677  0.63360800     0.09580
C814        C  0.45458724  0.54455808  0.65910391    -0.07540
C815        C  0.48355049  0.57463831  0.64211703    -0.18780
C816        C  0.49448516  0.57481832  0.59920941     0.09610
S817        S  0.40197701  0.47214436  0.65099856    -0.33750
S818        S  0.52870563  0.61612652  0.57881060    -0.33750
H819        H  0.50842518  0.61764799  0.54410993     0.27620
H820        H  0.42016908  0.46868637  0.68674203     0.27610
H821        H  0.43578034  0.48948402  0.57052528     0.18210
H822        H  0.49656153  0.59894182  0.66146450     0.18210
C823        C  0.44014192  0.58883176  0.15128955    -0.07620
C824        C  0.41341863  0.56572685  0.12266690    -0.18750
C825        C  0.41976119  0.56564793  0.07783422     0.09580
C826        C  0.45385816  0.58696599  0.06219260    -0.07540
C827        C  0.47878926  0.61340168  0.08952058    -0.18780
C828        C  0.47187857  0.61527760  0.13353564     0.09610
S829        S  0.38350576  0.53933806  0.04178526    -0.33750
S830        S  0.50552007  0.65074128  0.16600338    -0.33750
H831        H  0.48286575  0.65059398  0.19836326     0.27620
H832        H  0.39792168  0.56029651  0.00473585     0.27610
H833        H  0.38832750  0.54648122  0.13533932     0.18210
H834        H  0.50436572  0.63163549  0.07708972     0.18210
C835        C  0.65213383  0.74826020  0.34330078    -0.07620
C836        C  0.65662743  0.71978059  0.32863630    -0.18750
C837        C  0.63187222  0.69342644  0.30074956     0.09580
C838        C  0.60121110  0.69450352  0.28957774    -0.07540
C839        C  0.60092124  0.72666787  0.29641605    -0.18780
C840        C  0.62616965  0.75357764  0.32325544     0.09610
S841        S  0.63682306  0.65524996  0.28785039    -0.33750
S842        S  0.62356178  0.79354286  0.33159315    -0.33750
H843        H  0.65921394  0.81580769  0.34089203     0.27620
H844        H  0.61239018  0.64297562  0.25327434     0.27610
H845        H  0.67792947  0.71655361  0.34146647     0.18210
H846        H  0.57827085  0.72870216  0.28638046     0.18210
C847        C  0.75152485  0.88245561  0.77418546    -0.07620
C848        C  0.72068000  0.85260503  0.75899892    -0.18750
C849        C  0.71049799  0.84808929  0.71487800     0.09580
C850        C  0.73176052  0.87375940  0.68437757    -0.07540
C851        C  0.76250738  0.90374550  0.69965848    -0.18780
C852        C  0.77279560  0.90810044  0.74372339     0.09610
S853        S  0.66923483  0.81009869  0.70034080    -0.33750
S854        S  0.81422690  0.94584119  0.75834002    -0.33750
H855        H  0.82409618  0.92695386  0.78702876     0.27620
H856        H  0.65947948  0.82851921  0.67077995     0.27610
H857        H  0.70372199  0.83296430  0.78200160     0.18210
H858        H  0.77935265  0.92365904  0.67679037     0.18210
C859        C  0.73763444  0.88018375  0.18834634    -0.07620
C860        C  0.74550939  0.85409647  0.20298628    -0.18750
C861        C  0.75856369  0.85519859  0.24548693     0.09580
C862        C  0.76386671  0.88316566  0.27493728    -0.07540
C863        C  0.75648499  0.90954620  0.26000197    -0.18780
C864        C  0.74371425  0.90845393  0.21754332     0.09610
S865        S  0.76991080  0.82155624  0.26034438    -0.33750
S866        S  0.73407709  0.94316636  0.20331558    -0.33750
H867        H  0.76355990  0.96006454  0.17663925     0.27620
H868        H  0.75737632  0.80048957  0.22217574     0.27610
H869        H  0.74251632  0.83336170  0.18045405     0.18210
H870        H  0.76009914  0.93104381  0.28185559     0.18210
C871        C  0.57493735  0.71941699  0.78840249    -0.07620
C872        C  0.60829283  0.72300713  0.78471140    -0.18750
C873        C  0.63500473  0.74404770  0.81450685     0.09580
C874        C  0.62863353  0.76312040  0.84812502    -0.07540
C875        C  0.59766967  0.76500022  0.84568275    -0.18780
C876        C  0.57162013  0.74457550  0.81477986     0.09610
S877        S  0.67415876  0.74058549  0.81134382    -0.33750
S878        S  0.53279775  0.74832047  0.81379365    -0.33750
H879        H  0.52248198  0.73386945  0.77147531     0.27620
H880        H  0.69581722  0.77729552  0.80586398     0.27610
H881        H  0.61178467  0.70468477  0.76354672     0.18210
H882        H  0.59324516  0.78156247  0.86871472     0.18210
C883        C  0.26587520  0.36831062  0.49259787    -0.07620
C884        C  0.28540567  0.36228805  0.46084981    -0.18750
C885        C  0.31354413  0.39047395  0.44078930     0.09580
C886        C  0.32224013  0.42551706  0.45258318    -0.07540
C887        C  0.30445378  0.43150816  0.48681714    -0.18780
C888        C  0.27622218  0.40322283  0.50686913     0.09610
S889        S  0.33662170  0.37996302  0.39992296    -0.33750
S890        S  0.25235546  0.41353965  0.54673296    -0.33750
H891        H  0.23978019  0.38160016  0.56957683     0.27620
H892        H  0.36944364  0.40954199  0.40919329     0.27610
H893        H  0.27741089  0.33534528  0.44985509     0.18210
H894        H  0.31131421  0.45846584  0.49638237     0.18210
C895        C  0.94111361  0.09351611  0.52567050    -0.07620
C896        C  0.93077542  0.08353929  0.56927413    -0.18750
C897        C  0.89740353  0.05565147  0.57952794     0.09580
C898        C  0.87334275  0.03695345  0.54579752    -0.07540
C899        C  0.88302499  0.04840239  0.50261923    -0.18780
C900        C  0.91602548  0.07623470  0.49225998     0.09610
S901        S  0.88781034  0.04345172  0.63578947    -0.33750
S902        S  0.92534173  0.08550697  0.43536049    -0.33750
H903        H  0.93174494  0.12072906  0.44015783     0.27620
H904        H  0.85134666  0.02647049  0.63065081     0.27610
H905        H  0.94916096  0.09681448  0.59577609     0.18210
H906        H  0.86539134  0.03359895  0.47601444     0.18210
C907        C  0.32487269  0.42591749  0.96640044    -0.07620
C908        C  0.30227269  0.39925360  0.93748409    -0.18750
C909        C  0.27140015  0.37085084  0.95121862     0.09580
C910        C  0.26114270  0.36956175  0.99537135    -0.07540
C911        C  0.28494977  0.39448959  0.02539540    -0.18780
C912        C  0.31727448  0.42211000  0.01147614     0.09610
S913        S  0.24721989  0.33751127  0.90957500    -0.33750
S914        S  0.34671439  0.45160736  0.05245597    -0.33750
H915        H  0.37623950  0.45178490  0.03487418     0.27620
H916        H  0.23489351  0.30833097  0.93751201     0.27610
H917        H  0.30870880  0.40052644  0.90322251     0.18210
H918        H  0.27809400  0.39290605  0.05948839     0.18210
C919        C  0.10678981  0.20644178  0.79450801    -0.07620
C920        C  0.09299187  0.22893318  0.78466567    -0.18750
C921        C  0.10405217  0.25079725  0.74825717     0.09580
C922        C  0.12893664  0.24978763  0.72017210    -0.07540
C923        C  0.14323164  0.22782585  0.73054003    -0.18780
C924        C  0.13226367  0.20607936  0.76708142     0.09610
S925        S  0.08552081  0.27953075  0.73925747    -0.33750
S926        S  0.15139926  0.17802384  0.77689159    -0.33750
H927        H  0.12331988  0.15223436  0.80069514     0.27620
H928        H  0.11343202  0.30470176  0.71465234     0.27610
H929        H  0.07491707  0.23105933  0.80680468     0.18210
H930        H  0.16138298  0.22573204  0.70854384     0.18210
C931        C  0.08993984  0.19602718  0.29541012    -0.07620
C932        C  0.12337480  0.20937451  0.27728407    -0.18750
C933        C  0.13374331  0.23170638  0.24150045     0.09580
C934        C  0.10928697  0.23874033  0.22012369    -0.07540
C935        C  0.07546075  0.22445830  0.23736823    -0.18780
C936        C  0.06533054  0.20271354  0.27383916     0.09610
S937        S  0.17883006  0.25088122  0.22623055    -0.33750
S938        S  0.02039870  0.18356262  0.28980336    -0.33750
H939        H  0.01781941  0.15109432  0.30268241     0.27620
H940        H  0.18271123  0.28492064  0.21960963     0.27610
H941        H  0.14281051  0.20462023  0.29309611     0.18210
H942        H  0.05600276  0.22883274  0.22092994     0.18210
C943        C  0.94296704  0.08769729  0.01812738    -0.07620
C944        C  0.92167106  0.06726729  0.98365488    -0.18750
C945        C  0.88743161  0.04050970  0.99064588     0.09580
C946        C  0.87359371  0.03368377  0.03370486    -0.07540
C947        C  0.89390452  0.05625386  0.06774582    -0.18780
C948        C  0.92809122  0.08365035  0.06028302     0.09610
S949        S  0.86295701  0.01373524  0.94390692    -0.33750
S950        S  0.95092151  0.11270169  0.10583061    -0.33750
H951        H  0.96655304  0.14370265  0.08068099     0.27620
H952        H  0.88642722  0.03422969  0.91141328     0.27610
H953        H  0.93264077  0.07093485  0.95137306     0.18210
H954        H  0.88374172  0.05159305  0.10055406     0.18210
C955        C  0.77784509  0.07593174  0.58160939    -0.07620
C956        C  0.74697484  0.05696708  0.55677746    -0.18750
C957        C  0.74562974  0.03883044  0.51757907     0.09580
C958        C  0.77541550  0.03712648  0.50243560    -0.07540
C959        C  0.80692223  0.05848155  0.52514883    -0.18780
C960        C  0.80852719  0.07745470  0.56410503     0.09610
S961        S  0.70470830  0.01901881  0.48797138    -0.33750
S962        S  0.85045083  0.10202282  0.59052438    -0.33750
H963        H  0.83794851  0.08705790  0.63154693     0.27620
H964        H  0.71992509  0.02396759  0.44656803     0.27610
H965        H  0.72338243  0.05662553  0.56757098     0.18210
H966        H  0.83029686  0.05933453  0.51345449     0.18210
C967        C  0.92742169  0.25058764  0.59478441    -0.07620
C968        C  0.93726892  0.26305753  0.55238630    -0.18750
C969        C  0.97144906  0.27522899  0.53886572     0.09580
C970        C  0.99542717  0.27320361  0.56794023    -0.07540
C971        C  0.98712512  0.26735101  0.61225670    -0.18780
C972        C  0.95318446  0.25566503  0.62606867     0.09610
S973        S  0.98242525  0.29177836  0.48423746    -0.33750
S974        S  0.94341259  0.24689524  0.68334553    -0.33750
H975        H  0.97787374  0.25993087  0.69841242     0.27620
H976        H  0.01796328  0.31448037  0.49396867     0.27610
H977        H  0.91803353  0.26207896  0.52931864     0.18210
H978        H  0.00625724  0.26829023  0.63540202     0.18210
C979        C  0.76898729  0.07548239  0.09301722    -0.07620
C980        C  0.79967753  0.08518644  0.06873071    -0.18750
C981        C  0.79967258  0.06674398  0.02971385     0.09580
C982        C  0.76845584  0.03693440  0.01408631    -0.07540
C983        C  0.73786793  0.02870434  0.03752915    -0.18780
C984        C  0.73773326  0.04652699  0.07606780     0.09610
S985        S  0.83975510  0.08416946  0.00015414    -0.33750
S986        S  0.69602985  0.02932136  0.10214274    -0.33750
H987        H  0.70879979  0.02490604  0.14244909     0.27620
H988        H  0.82385097  0.07297602  0.95883197     0.27610
H989        H  0.82389052  0.10785567  0.07965215     0.18210
H990        H  0.71311451  0.00668976  0.02689859     0.18210
C991        C  0.91458658  0.23983688  0.08393665    -0.07620
C992        C  0.94108187  0.24791422  0.11479388    -0.18750
C993        C  0.97409646  0.25505376  0.10198341     0.09580
C994        C  0.98014401  0.25197853  0.05736082    -0.07540
C995        C  0.95500021  0.24835281  0.02621762    -0.18780
C996        C  0.92211694  0.24219625  0.03913808     0.09610
S997        S  0.00680930  0.26693627  0.14429367    -0.33750
S998        S  0.89025094  0.23454108  0.99715817    -0.33750
H999        H  0.86195646  0.20712793  0.01887924     0.27620
H1000       H  0.03505889  0.28798756  0.11722914     0.27610
H1001       H  0.93592508  0.24836468  0.14926683     0.18210
H1002       H  0.95969501  0.24702657  0.99178905     0.18210
C1003       C  0.75839161  0.19891017  0.96357260    -0.07620
C1004       C  0.78772198  0.19588560  0.95135291    -0.18750
C1005       C  0.79113845  0.18500630  0.90903453     0.09580
C1006       C  0.76505266  0.17752927  0.87699287    -0.07540
C1007       C  0.73573656  0.18060832  0.88922877    -0.18780
C1008       C  0.73239880  0.19161285  0.93149847     0.09610
S1009       S  0.82854594  0.17943748  0.89885374    -0.33750
S1010       S  0.69545813  0.19804188  0.94140737    -0.33750
H1011       H  0.71408820  0.22889485  0.96738779     0.27620
H1012       H  0.81027490  0.14860618  0.87274201     0.27610
H1013       H  0.80783172  0.20105849  0.97542699     0.18210
H1014       H  0.71565915  0.17561235  0.86515123     0.18210
C1015       C  0.76140229  0.20778692  0.46830381    -0.07620
C1016       C  0.78938360  0.20395251  0.45240764    -0.18750
C1017       C  0.79015981  0.19347774  0.40902460     0.09580
C1018       C  0.76278522  0.18742970  0.37959574    -0.07540
C1019       C  0.73479372  0.19130683  0.39545699    -0.18780
C1020       C  0.73402755  0.20179412  0.43890762     0.09610
S1021       S  0.82588780  0.18628768  0.39419938    -0.33750
S1022       S  0.69842689  0.20914423  0.45389752    -0.33750
H1023       H  0.71888781  0.23917518  0.48045834     0.27620
H1024       H  0.80533275  0.15577299  0.36842068     0.27610
H1025       H  0.81040578  0.20795155  0.47441939     0.18210
H1026       H  0.71381264  0.18735370  0.37339859     0.18210
C1027       C  0.57108355  0.04571930  0.75997051    -0.07620
C1028       C  0.55664086  0.05002808  0.72073762    -0.18750
C1029       C  0.57742158  0.06537723  0.68359649     0.09580
C1030       C  0.61351224  0.07700107  0.68564568    -0.07540
C1031       C  0.62751115  0.07257471  0.72511315    -0.18780
C1032       C  0.60720329  0.05797667  0.76192177     0.09610
S1033       S  0.55610264  0.06688828  0.63401350    -0.33750
S1034       S  0.62945199  0.05669201  0.81092317    -0.33750
H1035       H  0.60808765  0.06298365  0.83958925     0.27620
H1036       H  0.58144315  0.06841486  0.60507087     0.27610
H1037       H  0.52877086  0.03963191  0.71825714     0.18210
H1038       H  0.65519855  0.08170773  0.72808405     0.18210
C1039       C  0.57594100  0.87945616  0.83582914    -0.07620
C1040       C  0.56184445  0.84915992  0.86220074    -0.18750
C1041       C  0.57993362  0.84685980  0.89914991     0.09580
C1042       C  0.61319734  0.87554094  0.91078085    -0.07540
C1043       C  0.62832819  0.90454691  0.88245544    -0.18780
C1044       C  0.61061639  0.90640546  0.84511129     0.09610
S1045       S  0.55805056  0.80771054  0.93183130    -0.33750
S1046       S  0.63332982  0.94488085  0.81124345    -0.33750
H1047       H  0.61390734  0.92853043  0.77307885     0.27620
H1048       H  0.56612480  0.82667461  0.97169442     0.27610
H1049       H  0.53548177  0.82839343  0.85631248     0.18210
H1050       H  0.65437948  0.92613720  0.88932039     0.18210
C1051       C  0.47159252  0.78801680  0.91195914    -0.07620
C1052       C  0.47206637  0.77369228  0.95287874    -0.18750
C1053       C  0.46940843  0.73966598  0.95595336     0.09580
C1054       C  0.46565605  0.71976549  0.91733893    -0.07540
C1055       C  0.46689910  0.73511193  0.87711722    -0.18780
C1056       C  0.47013717  0.76854471  0.87362844     0.09610
S1057       S  0.46915876  0.72272455  0.00948407    -0.33750
S1058       S  0.47057280  0.78463306  0.81894841    -0.33750
H1059       H  0.46488859  0.75418884  0.79505419     0.27620
H1060       H  0.45181105  0.68644722  0.99787468     0.27610
H1061       H  0.47271795  0.78811564  0.98232826     0.18210
H1062       H  0.46449628  0.72017806  0.84751676     0.18210
C1063       C  0.57049533  0.03052642  0.25737100    -0.07620
C1064       C  0.55420908  0.03476239  0.21970899    -0.18750
C1065       C  0.57385152  0.05443492  0.18359255     0.09580
C1066       C  0.61061314  0.07016315  0.18504560    -0.07540
C1067       C  0.62632929  0.06642782  0.22357495    -0.18780
C1068       C  0.60704002  0.04711220  0.25908271     0.09610
S1069       S  0.55045524  0.05812507  0.13727976    -0.33750
S1070       S  0.63095805  0.04622608  0.30662321    -0.33750
H1071       H  0.60834607  0.04867401  0.33704344     0.27620
H1072       H  0.57663799  0.06605641  0.10641949     0.27610
H1073       H  0.52602949  0.02244374  0.21828404     0.18210
H1074       H  0.65446464  0.07927448  0.22673210     0.18210
C1075       C  0.62022163  0.86933337  0.40135634    -0.07620
C1076       C  0.59184915  0.83748910  0.38479427    -0.18750
C1077       C  0.57167165  0.83705695  0.34817020     0.09580
C1078       C  0.57796828  0.86928341  0.32876149    -0.07540
C1079       C  0.60795113  0.90046073  0.34325969    -0.18780
C1080       C  0.62843480  0.90107680  0.37883639     0.09610
S1081       S  0.54057461  0.79465633  0.32553160    -0.33750
S1082       S  0.66436529  0.94403306  0.39358182    -0.33750
H1083       H  0.64990211  0.94471788  0.43418439     0.27620
H1084       H  0.54459641  0.80646206  0.28228866     0.27610
H1085       H  0.58568918  0.81250361  0.39989217     0.18210
H1086       H  0.61462581  0.92561093  0.32819803     0.18210
C1087       C  0.45988200  0.91441170  0.53319095    -0.07620
C1088       C  0.42800052  0.91006564  0.54848995    -0.18750
C1089       C  0.41703981  0.89929242  0.59120185     0.09580
C1090       C  0.43905467  0.89414351  0.62077917    -0.07540
C1091       C  0.47087941  0.89826088  0.60540562    -0.18780
C1092       C  0.48147855  0.90814499  0.56213497     0.09610
S1093       S  0.37378737  0.89075418  0.60471121    -0.33750
S1094       S  0.52353987  0.91460943  0.54538804    -0.33750
H1095       H  0.53203000  0.90314680  0.58407360     0.27620
H1096       H  0.36545693  0.85976853  0.62820551     0.27610
H1097       H  0.41074461  0.91384156  0.52645805     0.18210
H1098       H  0.48798932  0.89464477  0.62777228     0.18210
C1099       C  0.43494457  0.89228686  0.11690612    -0.07620
C1100       C  0.41899227  0.91113351  0.09934275    -0.18750
C1101       C  0.42584247  0.92481292  0.05681670     0.09580
C1102       C  0.45064024  0.92120032  0.03131797    -0.07540
C1103       C  0.46567452  0.90138964  0.04849970    -0.18780
C1104       C  0.45740216  0.88615322  0.08985492     0.09610
S1105       S  0.40189782  0.94566504  0.03568568    -0.33750
S1106       S  0.47579076  0.85847560  0.10514862    -0.33750
H1107       H  0.44362957  0.83035491  0.11863469     0.27620
H1108       H  0.38126414  0.94111416  0.07250437     0.27610
H1109       H  0.40091595  0.91526954  0.11907903     0.18210
H1110       H  0.48374593  0.89687486  0.02917503     0.18210
C1111       C  0.47658900  0.77039159  0.40027772    -0.07620
C1112       C  0.49467985  0.77069455  0.43846928    -0.18750
C1113       C  0.49977219  0.74166488  0.44887435     0.09580
C1114       C  0.48679175  0.71183849  0.42026765    -0.07540
C1115       C  0.47001966  0.71215981  0.38170990    -0.18780
C1116       C  0.46496870  0.74064306  0.37106854     0.09610
S1117       S  0.52097383  0.74350588  0.50007372    -0.33750
S1118       S  0.44437075  0.73660672  0.31852354    -0.33750
H1119       H  0.46842920  0.77101325  0.30494330     0.27620
H1120       H  0.52917323  0.71648337  0.49066426     0.27610
H1121       H  0.50400900  0.79314685  0.46092593     0.18210
H1122       H  0.46015123  0.68938409  0.35959716     0.18210
C1123       C  0.30540013  0.15781377  0.57578717    -0.07620
C1124       C  0.32383501  0.14122069  0.55934639    -0.18750
C1125       C  0.32250303  0.11239523  0.58206602     0.09580
C1126       C  0.30246959  0.10126452  0.62041602    -0.07540
C1127       C  0.27303814  0.10614308  0.62090076    -0.18780
C1128       C  0.27506714  0.13600501  0.59996215     0.09610
S1129       S  0.35264386  0.09707329  0.56770870    -0.33750
S1130       S  0.24637211  0.15216826  0.61843330    -0.33750
H1131       H  0.25977597  0.18163826  0.59066111     0.27620
H1132       H  0.33803536  0.06774255  0.59568463     0.27610
H1133       H  0.34448743  0.15486057  0.53605737     0.18210
H1134       H  0.25424564  0.09423328  0.64670158     0.18210
C1135       C  0.44580779  0.36048944  0.74152090    -0.07620
C1136       C  0.44845604  0.36317936  0.78700987    -0.18750
C1137       C  0.44893924  0.39179340  0.80884382     0.09580
C1138       C  0.44802332  0.41889647  0.78439001    -0.07540
C1139       C  0.44777030  0.41742848  0.73888875    -0.18780
C1140       C  0.44606500  0.38824146  0.71703536     0.09610
S1141       S  0.44735157  0.39016062  0.86754421    -0.33750
S1142       S  0.44089569  0.38687310  0.65858890    -0.33750
H1143       H  0.41116738  0.35290506  0.65795204     0.27620
H1144       H  0.42029134  0.39865436  0.87056007     0.27610
H1145       H  0.44831273  0.34191986  0.80579754     0.18210
H1146       H  0.44736978  0.43845765  0.72027972     0.18210
C1147       C  0.43728740  0.02153640  0.68992512    -0.07620
C1148       C  0.46905458  0.05305422  0.68716663    -0.18750
C1149       C  0.47570570  0.07639312  0.65268669     0.09580
C1150       C  0.44952556  0.07010307  0.62156887    -0.07540
C1151       C  0.41996194  0.03619545  0.62047640    -0.18780
C1152       C  0.41314759  0.01218376  0.65454553     0.09610
S1153       S  0.51599337  0.11685398  0.65418555    -0.33750
S1154       S  0.37111519  0.97261462  0.65326099    -0.33750
H1155       H  0.36244067  0.97839407  0.69554856     0.27620
H1156       H  0.51775261  0.12039923  0.60858187     0.27610
H1157       H  0.48846729  0.06031662  0.71281566     0.18210
H1158       H  0.39936333  0.03068409  0.59695220     0.18210
C1159       C  0.56562062  0.18623654  0.72948940    -0.07620
C1160       C  0.57151934  0.17853293  0.77235631    -0.18750
C1161       C  0.59854956  0.17064802  0.78160312     0.09580
C1162       C  0.61719306  0.16646663  0.74689066    -0.07540
C1163       C  0.60702572  0.16853708  0.70408253    -0.18780
C1164       C  0.58529616  0.18262002  0.69523623     0.09610
S1165       S  0.60938991  0.16819837  0.83767525    -0.33750
S1166       S  0.58911826  0.19988955  0.64063037    -0.33750
H1167       H  0.55366406  0.18509745  0.63018037     0.27620
H1168       H  0.62828498  0.15024052  0.82927357     0.27610
H1169       H  0.55673516  0.18108773  0.79896348     0.18210
H1170       H  0.62130935  0.16563088  0.67708340     0.18210
C1171       C  0.26467319  0.22992918  0.98168814    -0.07620
C1172       C  0.26751007  0.19896238  0.98471571    -0.18750
C1173       C  0.29630137  0.19948415  0.00561050     0.09580
C1174       C  0.32175534  0.23089072  0.02657530    -0.07540
C1175       C  0.32096772  0.26258433  0.01943740    -0.18780
C1176       C  0.29311537  0.26242075  0.99653940     0.09610
S1177       S  0.29938539  0.15946175  0.00424299    -0.33750
S1178       S  0.29313303  0.30388029  0.99109449    -0.33750
H1179       H  0.27941247  0.29524729  0.94847422     0.27620
H1180       H  0.33563447  0.17584568  0.01118429     0.27610
H1181       H  0.24615177  0.17378769  0.97327544     0.18210
H1182       H  0.34095704  0.28723646  0.03400428     0.18210
C1183       C  0.41704342  0.40402868  0.28412153    -0.07620
C1184       C  0.38447609  0.37648979  0.26980001    -0.18750
C1185       C  0.38067658  0.34377853  0.25528017     0.09580
C1186       C  0.40995504  0.33845917  0.25566873    -0.07540
C1187       C  0.44151804  0.36473877  0.27351684    -0.18780
C1188       C  0.44517313  0.39694912  0.28876077     0.09610
S1189       S  0.33889554  0.31140622  0.23306857    -0.33750
S1190       S  0.48646760  0.42752249  0.31383095    -0.33750
H1191       H  0.47182259  0.43990978  0.34563376     0.27620
H1192       H  0.35240489  0.30237596  0.19660990     0.27610
H1193       H  0.36253103  0.38128158  0.26687921     0.18210
H1194       H  0.46384569  0.36040514  0.27470344     0.18210
C1195       C  0.45001719  0.02668453  0.20674338    -0.07620
C1196       C  0.44578261  0.01907872  0.16157836    -0.18750
C1197       C  0.45414221  0.04629558  0.13086067     0.09580
C1198       C  0.46902303  0.08223852  0.14480963    -0.07540
C1199       C  0.47604138  0.08975408  0.18952800    -0.18780
C1200       C  0.46427445  0.06263638  0.22037122     0.09610
S1201       S  0.44315486  0.03371512  0.07444539    -0.33750
S1202       S  0.46160849  0.07510742  0.27600626    -0.33750
H1203       H  0.42778881  0.04663764  0.28247619     0.27620
H1204       H  0.46555347  0.06755060  0.05767244     0.27610
H1205       H  0.43471538  0.99175827  0.15018905     0.18210
H1206       H  0.48550874  0.11673723  0.20097280     0.18210
C1207       C  0.47288059  0.24092418  0.95853010    -0.07620
C1208       C  0.47183300  0.21060357  0.93991227    -0.18750
C1209       C  0.46200375  0.20109062  0.89626601     0.09580
C1210       C  0.45267867  0.22247472  0.87063724    -0.07540
C1211       C  0.45632570  0.25422052  0.88846466    -0.18780
C1212       C  0.46685413  0.26402659  0.93186532     0.09610
S1213       S  0.45917821  0.16018951  0.87572680    -0.33750
S1214       S  0.47299223  0.30632943  0.95219624    -0.33750
H1215       H  0.46534524  0.31795765  0.91303418     0.27620
H1216       H  0.47608331  0.15416062  0.91105648     0.27610
H1217       H  0.47675005  0.19313672  0.96031983     0.18210
H1218       H  0.45066533  0.27131151  0.86832302     0.18210
C1219       C  0.40403350  0.18817564  0.36072324    -0.07620
C1220       C  0.41214281  0.22183699  0.37722504    -0.18750
C1221       C  0.42492417  0.23240873  0.41995866     0.09580
C1222       C  0.42935735  0.20855170  0.44734072    -0.07540
C1223       C  0.42127034  0.17490215  0.43084571    -0.18780
C1224       C  0.40825371  0.16429491  0.38829390     0.09610
S1225       S  0.43774632  0.27736552  0.43776229    -0.33750
S1226       S  0.39625878  0.11939252  0.37193257    -0.33750
H1227       H  0.36731165  0.11408564  0.34651252     0.27620
H1228       H  0.42698386  0.28787232  0.40007494     0.27610
H1229       H  0.40981694  0.24046734  0.35591662     0.18210
H1230       H  0.42391432  0.15621217  0.45176592     0.18210
C1231       C  0.55232376  0.18575243  0.26938839    -0.07620
C1232       C  0.55130866  0.15276198  0.27137444    -0.18750
C1233       C  0.58214720  0.15031881  0.27299737     0.09580
C1234       C  0.61492408  0.18116475  0.26864875    -0.07540
C1235       C  0.61594064  0.21419346  0.27249334    -0.18780
C1236       C  0.58527945  0.21667463  0.27469619     0.09610
S1237       S  0.57790514  0.10717072  0.27775713    -0.33750
S1238       S  0.58985574  0.26040685  0.28098829    -0.33750
H1239       H  0.55610295  0.24864160  0.29709163     0.27620
H1240       H  0.60775537  0.11866671  0.30434711     0.27610
H1241       H  0.52657290  0.12859533  0.26834684     0.18210
H1242       H  0.64084044  0.23848213  0.27106030     0.18210
C1243       C  0.32661032  0.89709010  0.44744878    -0.07620
C1244       C  0.30007559  0.86185555  0.45226418    -0.18750
C1245       C  0.27364003  0.85312978  0.48273856     0.09580
C1246       C  0.27294869  0.88019425  0.50845507    -0.07540
C1247       C  0.30155969  0.91463956  0.50736369    -0.18780
C1248       C  0.32804905  0.92353916  0.47676363     0.09610
S1249       S  0.23952100  0.80738956  0.48475222    -0.33750
S1250       S  0.36018854  0.96992951  0.47341572    -0.33750
H1251       H  0.35734549  0.97109907  0.42781206     0.27620
H1252       H  0.22739911  0.81019453  0.52618269     0.27610
H1253       H  0.29937891  0.84106919  0.43137820     0.18210
H1254       H  0.30108372  0.93575856  0.52638442     0.18210
C1255       C  0.19058309  0.02578932  0.46580434    -0.07620
C1256       C  0.15429576  0.01040771  0.45959385    -0.18750
C1257       C  0.13379867  0.01054817  0.49461220     0.09580
C1258       C  0.15058917  0.02518852  0.53509057    -0.07540
C1259       C  0.18540141  0.05264694  0.53273960    -0.18780
C1260       C  0.20566907  0.05369811  0.49684383     0.09610
S1261       S  0.08709106  0.98527149  0.48929947    -0.33750
S1262       S  0.25227013  0.08118574  0.50032100    -0.33750
H1263       H  0.25846110  0.07195305  0.45842173     0.27620
H1264       H  0.08077730  0.99841481  0.52845918     0.27610
H1265       H  0.14165394  0.99244356  0.43222047     0.18210
H1266       H  0.19863677  0.06731996  0.56214516     0.18210
C1267       C  0.97581526  0.89765427  0.50948209    -0.07620
C1268       C  0.97513384  0.92586279  0.48823790    -0.18750
C1269       C  0.94350682  0.92480393  0.47840174     0.09580
C1270       C  0.91169615  0.89497886  0.49071012    -0.07540
C1271       C  0.91269692  0.86716946  0.51296090    -0.18780
C1272       C  0.94429378  0.86824457  0.52267017     0.09610
S1273       S  0.94575030  0.96093184  0.44696592    -0.33750
S1274       S  0.94234914  0.83040862  0.54999239    -0.33750
H1275       H  0.97430757  0.84905269  0.57243879     0.27620
H1276       H  0.91982368  0.93850023  0.41684187     0.27610
H1277       H  0.99932516  0.94807988  0.47734399     0.18210
H1278       H  0.88862279  0.84424985  0.52277891     0.18210
C1279       C  0.11242212  0.10203126  0.54062871    -0.07620
C1280       C  0.14461159  0.10206719  0.54175982    -0.18750
C1281       C  0.16764900  0.11694253  0.50666689     0.09580
C1282       C  0.15693628  0.13017413  0.47159664    -0.07540
C1283       C  0.12084363  0.11397051  0.46338012    -0.18780
C1284       C  0.09789375  0.09960680  0.49864111     0.09610
S1285       S  0.21360465  0.13384877  0.51570328    -0.33750
S1286       S  0.05245135  0.08683999  0.49204405    -0.33750
H1287       H  0.05279856  0.08916263  0.44630950     0.27620
H1288       H  0.22279286  0.14259338  0.47184592     0.27610
H1289       H  0.15539223  0.10039033  0.57293220     0.18210
H1290       H  0.11152735  0.11982384  0.43350544     0.18210
C1291       C  0.26893489  0.89336540  0.01099317    -0.07620
C1292       C  0.26733530  0.86548307  0.98483615    -0.18750
C1293       C  0.29294761  0.87103065  0.95395703     0.09580
C1294       C  0.32128880  0.90562394  0.94791890    -0.07540
C1295       C  0.32499846  0.93265821  0.97754376    -0.18780
C1296       C  0.29958999  0.92671868  0.00924833     0.09610
S1297       S  0.28716385  0.83283028  0.92270538    -0.33750
S1298       S  0.30637231  0.96329828  0.04437594    -0.33750
H1299       H  0.29002088  0.94175815  0.08039096     0.27620
H1300       H  0.32264742  0.84223095  0.92459626     0.27610
H1301       H  0.24420018  0.83953654  0.98583223     0.18210
H1302       H  0.34722404  0.95909170  0.97502242     0.18210
C1303       C  0.26148143  0.04960142  0.99924092    -0.07620
C1304       C  0.25396709  0.07294335  0.02311203    -0.18750
C1305       C  0.27200579  0.08885907  0.06191101     0.09580
C1306       C  0.30302465  0.08797709  0.07265252    -0.07540
C1307       C  0.31450085  0.07050235  0.04338290    -0.18780
C1308       C  0.29406165  0.05156293  0.00674179     0.09610
S1309       S  0.25137537  0.10615582  0.09806064    -0.33750
S1310       S  0.30887889  0.02762283  0.97242119    -0.33750
H1311       H  0.28569594  0.02241337  0.93774724     0.27620
H1312       H  0.25696524  0.09096043  0.13556261     0.27610
H1313       H  0.22913521  0.07203554  0.01744669     0.18210
H1314       H  0.33894048  0.07080251  0.04953509     0.18210
C1315       C  0.11930543  0.90561417  0.80465383    -0.07620
C1316       C  0.10758103  0.86930414  0.79659548    -0.18750
C1317       C  0.11954992  0.85821423  0.76098680     0.09580
C1318       C  0.14322319  0.88372726  0.73237654    -0.07540
C1319       C  0.15632977  0.92007691  0.74167992    -0.18780
C1320       C  0.14414405  0.93119757  0.77708009     0.09610
S1321       S  0.10288409  0.81114506  0.75236755    -0.33750
S1322       S  0.16030824  0.97827391  0.78481867    -0.33750
H1323       H  0.13123531  0.97493775  0.80773718     0.27620
H1324       H  0.13011388  0.81469921  0.72527261     0.27610
H1325       H  0.09016346  0.84949043  0.81919380     0.18210
H1326       H  0.17350629  0.93985070  0.71887429     0.18210
C1327       C  0.11581193  0.87700197  0.22716231    -0.07620
C1328       C  0.09669179  0.84792523  0.25382519    -0.18750
C1329       C  0.08755402  0.85289761  0.29560900     0.09580
C1330       C  0.09763663  0.88774889  0.31079959    -0.07540
C1331       C  0.11569960  0.91667338  0.28357179    -0.18780
C1332       C  0.12487865  0.91171945  0.24188688     0.09610
S1333       S  0.06568782  0.81416176  0.32913735    -0.33750
S1334       S  0.14667896  0.95049678  0.20843094    -0.33750
H1335       H  0.17611487  0.94616252  0.20251306     0.27620
H1336       H  0.03884850  0.82148636  0.34055948     0.27610
H1337       H  0.08840297  0.82119309  0.24174493     0.18210
H1338       H  0.12428926  0.94346215  0.29571472     0.18210
C1339       C  0.89672489  0.88746551  0.97518989    -0.07620
C1340       C  0.92319216  0.91813215  0.99604048    -0.18750
C1341       C  0.95697101  0.92318815  0.00122959     0.09580
C1342       C  0.96457610  0.89688693  0.98564784    -0.07540
C1343       C  0.93822356  0.86618666  0.96504032    -0.18780
C1344       C  0.90459812  0.86126408  0.95934682     0.09610
S1345       S  0.98935027  0.96413556  0.02667540    -0.33750
S1346       S  0.87375088  0.82177208  0.92997691    -0.33750
H1347       H  0.86274256  0.84020610  0.90209221     0.27620
H1348       H  0.01758666  0.96717836  0.00210308     0.27610
H1349       H  0.91763975  0.93855591  0.00814638     0.18210
H1350       H  0.94387633  0.84575269  0.95318669     0.18210
C1351       C  0.12039272  0.03132142  0.09778083    -0.07620
C1352       C  0.09775779  0.03483698  0.06823564    -0.18750
C1353       C  0.09678278  0.06672054  0.06480002     0.09580
C1354       C  0.11812444  0.09588224  0.09249818    -0.07540
C1355       C  0.14096794  0.09255510  0.12194264    -0.18780
C1356       C  0.14196876  0.06050553  0.12528625     0.09610
S1357       S  0.06930803  0.06907144  0.02250847    -0.33750
S1358       S  0.16964515  0.05781821  0.16690829    -0.33750
H1359       H  0.14743857  0.02178133  0.17621813     0.27620
H1360       H  0.09284739  0.10427984  0.01092874     0.27610
H1361       H  0.08138310  0.01282250  0.04653572     0.18210
H1362       H  0.15737409  0.11471423  0.14341105     0.18210
C1363       C  0.76211200  0.70219947  0.65793961    -0.07620
C1364       C  0.73823178  0.71449011  0.66491172    -0.18750
C1365       C  0.73533217  0.73844509  0.63648695     0.09580
C1366       C  0.75560157  0.74980076  0.59783024    -0.07540
C1367       C  0.78002905  0.73792308  0.59129654    -0.18780
C1368       C  0.78341686  0.71447801  0.62044517     0.09610
S1369       S  0.70576280  0.75400737  0.65299431    -0.33750
S1370       S  0.81385513  0.69945160  0.60611678    -0.33750
H1371       H  0.79096804  0.66354091  0.61544109     0.27620
H1372       H  0.73045597  0.79008030  0.64749833     0.27610
H1373       H  0.72191798  0.70578741  0.69350667     0.18210
H1374       H  0.79598887  0.74604084  0.56241080     0.18210
C1375       C  0.91099433  0.69142427  0.61848881    -0.07620
C1376       C  0.91517359  0.70099036  0.57475174    -0.18750
C1377       C  0.94631043  0.72914457  0.56019659     0.09580
C1378       C  0.97461443  0.74756166  0.58994740    -0.07540
C1379       C  0.97054007  0.73734087  0.63365734    -0.18780
C1380       C  0.93925270  0.70920070  0.64814327     0.09610
S1381       S  0.94668956  0.74130987  0.50405041    -0.33750
S1382       S  0.93773835  0.69625891  0.70419449    -0.33750
H1383       H  0.91734974  0.65951367  0.69564476     0.27620
H1384       H  0.96113132  0.77785043  0.51343401     0.27610
H1385       H  0.89342303  0.68745598  0.55211675     0.18210
H1386       H  0.99210210  0.75091317  0.65652971     0.18210
C1387       C  0.57104091  0.55719368  0.79345438    -0.07620
C1388       C  0.56076243  0.52324415  0.77464487    -0.18750
C1389       C  0.57649700  0.51867372  0.73640384     0.09580
C1390       C  0.60440894  0.54846949  0.71642418    -0.07540
C1391       C  0.61187242  0.58228002  0.73312318    -0.18780
C1392       C  0.59674627  0.58697846  0.77102089     0.09610
S1393       S  0.55731387  0.47476370  0.71311823    -0.33750
S1394       S  0.61341125  0.63231841  0.78957890    -0.33750
H1395       H  0.62046347  0.62537206  0.83209614     0.27620
H1396       H  0.56661128  0.48612511  0.67003544     0.27610
H1397       H  0.53970416  0.49993271  0.78929781     0.18210
H1398       H  0.63172620  0.60615149  0.71797420     0.18210
C1399       C  0.75814506  0.34727633  0.67019794    -0.07620
C1400       C  0.78481345  0.37602691  0.64835359    -0.18750
C1401       C  0.78318515  0.40703242  0.64069445     0.09580
C1402       C  0.75475977  0.41043155  0.65665781    -0.07540
C1403       C  0.72818690  0.38186610  0.67906372    -0.18780
C1404       C  0.72971000  0.35053371  0.68633341     0.09610
S1405       S  0.81722057  0.44001182  0.60767832    -0.33750
S1406       S  0.69541234  0.31650286  0.71792234    -0.33750
H1407       H  0.71720073  0.30592420  0.73931478     0.27620
H1408       H  0.79433785  0.44679019  0.58237649     0.27610
H1409       H  0.80646376  0.37376224  0.63505615     0.18210
H1410       H  0.70655974  0.38430625  0.69209982     0.18210
C1411       C  0.60819115  0.41924459  0.73686464    -0.07620
C1412       C  0.59121847  0.42193140  0.69942783    -0.18750
C1413       C  0.57070254  0.39264669  0.67234158     0.09580
C1414       C  0.56540269  0.35844792  0.68288888    -0.07540
C1415       C  0.58093884  0.35498957  0.72146777    -0.18780
C1416       C  0.60228042  0.38492333  0.74819211     0.09610
S1417       S  0.55565814  0.40194984  0.62184244    -0.33750
S1418       S  0.62385292  0.37845097  0.79449702    -0.33750
H1419       H  0.63254717  0.41105867  0.81530484     0.27620
H1420       H  0.56147863  0.37796134  0.59648477     0.27610
H1421       H  0.59864717  0.44805235  0.68706769     0.18210
H1422       H  0.57670244  0.32898007  0.73071065     0.18210
C1423       C  0.74468192  0.75176120  0.09386282    -0.07620
C1424       C  0.77200443  0.74415641  0.08660287    -0.18750
C1425       C  0.77793989  0.72180491  0.11431467     0.09580
C1426       C  0.75695533  0.70735978  0.15146632    -0.07540
C1427       C  0.73013947  0.71534457  0.15920743    -0.18780
C1428       C  0.72374298  0.73712031  0.13138693     0.09610
S1429       S  0.81054106  0.71030238  0.09809085    -0.33750
S1430       S  0.68724939  0.74321812  0.14556907    -0.33750
H1431       H  0.70725920  0.78039715  0.14695761     0.27620
H1432       H  0.78921364  0.67360699  0.10470659     0.27610
H1433       H  0.78815098  0.75456910  0.05809990     0.18210
H1434       H  0.71352456  0.70403897  0.18720140     0.18210
C1435       C  0.90446805  0.69332079  0.09556797    -0.07620
C1436       C  0.90617988  0.72508230  0.08233228    -0.18750
C1437       C  0.93682936  0.75237477  0.06534161     0.09580
C1438       C  0.96635368  0.74774975  0.06125591    -0.07540
C1439       C  0.96454465  0.71573756  0.07360607    -0.18780
C1440       C  0.93394330  0.68851957  0.09114845     0.09610
S1441       S  0.93672334  0.79239066  0.04884026    -0.33750
S1442       S  0.93490601  0.64942889  0.10987525    -0.33750
H1443       H  0.91477747  0.64490890  0.14721315     0.27620
H1444       H  0.96535156  0.81529537  0.07522446     0.27610
H1445       H  0.88366151  0.72881127  0.08564569     0.18210
H1446       H  0.98749761  0.71256865  0.07139839     0.18210
C1447       C  0.57928348  0.53942683  0.29471769    -0.07620
C1448       C  0.56117460  0.52170569  0.25554917    -0.18750
C1449       C  0.57811912  0.52418922  0.21619877     0.09580
C1450       C  0.61445797  0.54421304  0.21498547    -0.07540
C1451       C  0.63289528  0.56084456  0.25419540    -0.18780
C1452       C  0.61586563  0.55851086  0.29371780     0.09610
S1453       S  0.55175813  0.50109491  0.16898453    -0.33750
S1454       S  0.64222277  0.57970756  0.34147789    -0.33750
H1455       H  0.61914860  0.55455587  0.37094920     0.27620
H1456       H  0.57442941  0.52427966  0.13764516     0.27610
H1457       H  0.53301060  0.50622693  0.25456617     0.18210
H1458       H  0.66111507  0.57580471  0.25424944     0.18210
C1459       C  0.75553040  0.53302106  0.88223748    -0.07620
C1460       C  0.78712390  0.54612970  0.90482760    -0.18750
C1461       C  0.78772685  0.54714646  0.94983112     0.09580
C1462       C  0.75565292  0.53330154  0.97226897    -0.07540
C1463       C  0.72422893  0.51315995  0.94929525    -0.18780
C1464       C  0.72390335  0.51219009  0.90393465     0.09610
S1465       S  0.83043025  0.56984880  0.97507625    -0.33750
S1466       S  0.68323608  0.48574781  0.87465075    -0.33750
H1467       H  0.66272071  0.46926468  0.91122968     0.27620
H1468       H  0.82676378  0.59944365  0.98736355     0.27610
H1469       H  0.81164981  0.55983784  0.88776934     0.18210
H1470       H  0.69985080  0.49987379  0.96661741     0.18210
C1471       C  0.75669694  0.57117871  0.39066034    -0.07620
C1472       C  0.72570455  0.54324641  0.40701649    -0.18750
C1473       C  0.72200243  0.53585884  0.45125829     0.09580
C1474       C  0.74931734  0.55796061  0.47998304    -0.07540
C1475       C  0.78041852  0.58552906  0.46353764    -0.18780
C1476       C  0.78481125  0.59206885  0.41918417     0.09610
S1477       S  0.68287676  0.49701385  0.46820248    -0.33750
S1478       S  0.82589282  0.62809022  0.40080110    -0.33750
H1479       H  0.84453034  0.63460072  0.44035542     0.27620
H1480       H  0.70073034  0.48445279  0.49462264     0.27610
H1481       H  0.70438352  0.52648944  0.38506651     0.18210
H1482       H  0.80145675  0.60239429  0.48570547     0.18210
C1483       C  0.74683769  0.34526109  0.16318432    -0.07620
C1484       C  0.72363921  0.34889729  0.13496152    -0.18750
C1485       C  0.72502095  0.38172642  0.12993662     0.09580
C1486       C  0.74923038  0.41136917  0.15495951    -0.07540
C1487       C  0.77192421  0.40755821  0.18392123    -0.18780
C1488       C  0.77078270  0.37477760  0.18860381     0.09610
S1489       S  0.69739153  0.38464512  0.08835167    -0.33750
S1490       S  0.79987979  0.37214406  0.22827142    -0.33750
H1491       H  0.77747753  0.33644449  0.23903228     0.27620
H1492       H  0.72253238  0.41836055  0.07384001     0.27610
H1493       H  0.70580413  0.32658071  0.11459884     0.18210
H1494       H  0.79023945  0.43011059  0.20361151     0.18210
C1495       C  0.61888929  0.42285491  0.25754827    -0.07620
C1496       C  0.62614128  0.39467899  0.25073405    -0.18750
C1497       C  0.60167845  0.36245839  0.23088344     0.09580
C1498       C  0.56742883  0.35608581  0.22220174    -0.07540
C1499       C  0.55854460  0.38178678  0.23698005    -0.18780
C1500       C  0.58392533  0.41504529  0.25372386     0.09610
S1501       S  0.61787899  0.33382578  0.21113751    -0.33750
S1502       S  0.57140865  0.44823169  0.26392115    -0.33750
H1503       H  0.59170762  0.46913400  0.22943086     0.27620
H1504       H  0.60811178  0.33485017  0.16762128     0.27610
H1505       H  0.65293946  0.40013977  0.25338541     0.18210
H1506       H  0.53221073  0.37722186  0.23225248     0.18210
C1507       C  0.89276691  0.31963228  0.79574586    -0.07620
C1508       C  0.88665098  0.34793967  0.80586638    -0.18750
C1509       C  0.91035640  0.37695417  0.83142722     0.09580
C1510       C  0.94149507  0.37851804  0.84651650    -0.07540
C1511       C  0.94584232  0.34858869  0.84056440    -0.18780
C1512       C  0.92210258  0.31938960  0.81500295     0.09610
S1513       S  0.90113371  0.41293021  0.84076549    -0.33750
S1514       S  0.93351349  0.28527563  0.80347373    -0.33750
H1515       H  0.92803940  0.28519447  0.75824926     0.27620
H1516       H  0.92402201  0.42790406  0.87666566     0.27610
H1517       H  0.86381497  0.34806553  0.79255039     0.18210
H1518       H  0.96999313  0.34978588  0.85110448     0.18210
C1519       C  0.09074679  0.68758258  0.89608305    -0.07620
C1520       C  0.11450124  0.71667946  0.87171145    -0.18750
C1521       C  0.12150525  0.75125006  0.88187571     0.09580
C1522       C  0.10440612  0.75692817  0.91727554    -0.07540
C1523       C  0.08111012  0.72784677  0.94214850    -0.18780
C1524       C  0.07423190  0.69327135  0.93208265     0.09610
S1525       S  0.15129110  0.78655178  0.84742190    -0.33750
S1526       S  0.04365316  0.65764653  0.96563806    -0.33750
H1527       H  0.03107594  0.63121850  0.93271523     0.27620
H1528       H  0.13169103  0.80437680  0.84607531     0.27610
H1529       H  0.12771774  0.71242348  0.84446066     0.18210
H1530       H  0.06783584  0.73206736  0.96936346     0.18210
C1531       C  0.89522738  0.54978026  0.76028952    -0.07620
C1532       C  0.89480247  0.51882046  0.74415431    -0.18750
C1533       C  0.92366397  0.51341917  0.74843473     0.09580
C1534       C  0.95477087  0.54009226  0.76823600    -0.07540
C1535       C  0.95445014  0.57002280  0.78687284    -0.18780
C1536       C  0.92501956  0.57475290  0.78400351     0.09610
S1537       S  0.91972012  0.47322557  0.72466495    -0.33750
S1538       S  0.92817268  0.61425691  0.80884990    -0.33750
H1539       H  0.89660153  0.59541160  0.83129235     0.27620
H1540       H  0.92770592  0.46231636  0.76410390     0.27610
H1541       H  0.87199436  0.49892585  0.72659679     0.18210
H1542       H  0.97759462  0.59035115  0.80340555     0.18210
C1543       C  0.09105272  0.38157767  0.79909751    -0.07620
C1544       C  0.06093342  0.35623782  0.82005827    -0.18750
C1545       C  0.06168874  0.33085161  0.84782107     0.09580
C1546       C  0.09289743  0.32887414  0.85310552    -0.07540
C1547       C  0.12172973  0.35151335  0.82770565    -0.18780
C1548       C  0.12105993  0.37759951  0.80107289     0.09610
S1549       S  0.02312540  0.30535312  0.87950142    -0.33750
S1550       S  0.16041728  0.40755000  0.77328424    -0.33750
H1551       H  0.14422826  0.41994134  0.74382886     0.27620
H1552       H  0.04137938  0.31528564  0.91959335     0.27610
H1553       H  0.03797877  0.35953505  0.81995959     0.18210
H1554       H  0.14553975  0.34991426  0.82982280     0.18210
C1555       C  0.22762579  0.54187189  0.87793007    -0.07620
C1556       C  0.23744935  0.51797651  0.89488273    -0.18750
C1557       C  0.26995056  0.52090818  0.88552902     0.09580
C1558       C  0.29410342  0.54898936  0.85915244    -0.07540
C1559       C  0.28415039  0.57281268  0.84201947    -0.18780
C1560       C  0.25096696  0.56884697  0.84980161     0.09610
S1561       S  0.27947187  0.48880543  0.91014452    -0.33750
S1562       S  0.23899042  0.59682139  0.81924316    -0.33750
H1563       H  0.20389445  0.57075644  0.81292869     0.27620
H1564       H  0.27466652  0.47011149  0.87049801     0.27610
H1565       H  0.21975838  0.49696759  0.91601159     0.18210
H1566       H  0.30167336  0.59362776  0.82055280     0.18210
C1567       C  0.24040282  0.68976561  0.81774501    -0.07620
C1568       C  0.24774957  0.71015833  0.77985711    -0.18750
C1569       C  0.27842716  0.74270119  0.77646742     0.09580
C1570       C  0.30238011  0.75523535  0.81167333    -0.07540
C1571       C  0.29576603  0.73488865  0.84896260    -0.18780
C1572       C  0.26519695  0.70253534  0.85272668     0.09610
S1573       S  0.28551493  0.76688084  0.72647815    -0.33750
S1574       S  0.25961421  0.68069318  0.90423393    -0.33750
H1575       H  0.25512205  0.64895168  0.88523570     0.27620
H1576       H  0.32208602  0.78279632  0.72742760     0.27610
H1577       H  0.22931359  0.70102202  0.75281695     0.18210
H1578       H  0.31427198  0.74480204  0.87597599     0.18210
C1579       C  0.13333286  0.55290781  0.62965949    -0.07620
C1580       C  0.13631173  0.52506901  0.60988514    -0.18750
C1581       C  0.13061909  0.51834551  0.56510570     0.09580
C1582       C  0.12136706  0.53998043  0.54019156    -0.07540
C1583       C  0.12426547  0.57114609  0.55880444    -0.18780
C1584       C  0.13017222  0.57795176  0.60331013     0.09610
S1585       S  0.13145986  0.47992123  0.54215744    -0.33750
S1586       S  0.12825538  0.61611509  0.62449913    -0.33750
H1587       H  0.09568107  0.59508377  0.64399122     0.27620
H1588       H  0.14587578  0.47229833  0.57885640     0.27610
H1589       H  0.13984823  0.50662357  0.63019531     0.18210
H1590       H  0.11894334  0.58882443  0.53924926     0.18210
C1591       C  0.06280032  0.52991609  0.13368021    -0.07620
C1592       C  0.03097593  0.50544630  0.11410708    -0.18750
C1593       C  0.02720682  0.50360848  0.06864537     0.09580
C1594       C  0.05595500  0.52662872  0.04336124    -0.07540
C1595       C  0.08745592  0.55105922  0.06364877    -0.18780
C1596       C  0.09109594  0.55316580  0.10830540     0.09610
S1597       S  0.98571386  0.47181112  0.04512359    -0.33750
S1598       S  0.13318475  0.58503836  0.13075716    -0.33750
H1599       H  0.12003979  0.59631449  0.16546553     0.27620
H1600       H  0.98916634  0.49021522  0.00627688     0.27610
H1601       H  0.00937339  0.48759764  0.13415698     0.18210
H1602       H  0.11001308  0.56835181  0.04454090     0.18210
C1603       C  0.94299471  0.39210713  0.32987255    -0.07620
C1604       C  0.92261921  0.35884860  0.34892177    -0.18750
C1605       C  0.89681239  0.32983249  0.32482568     0.09580
C1606       C  0.89043881  0.33384091  0.28031093    -0.07540
C1607       C  0.91074642  0.36740303  0.26157345    -0.18780
C1608       C  0.93709134  0.39611465  0.28542263     0.09610
S1609       S  0.87283647  0.28853738  0.35305599    -0.33750
S1610       S  0.96497568  0.43580586  0.25585435    -0.33750
H1611       H  0.96754990  0.45978324  0.28885311     0.27620
H1612       H  0.88939123  0.27242318  0.33038972     0.27610
H1613       H  0.92748171  0.35514868  0.38263604     0.18210
H1614       H  0.90707769  0.37102823  0.22742785     0.18210
C1615       C  0.10124468  0.73914680  0.44611029    -0.07620
C1616       C  0.13045724  0.73524155  0.45602085    -0.18750
C1617       C  0.12887159  0.70215913  0.45204013     0.09580
C1618       C  0.09738503  0.67247974  0.43858545    -0.07540
C1619       C  0.06772957  0.67586451  0.43123836    -0.18780
C1620       C  0.06949046  0.70894698  0.43356953     0.09610
S1621       S  0.16792498  0.69953336  0.46288973    -0.33750
S1622       S  0.03155025  0.71105185  0.41488605    -0.33750
H1623       H  0.05063516  0.74095950  0.38871479     0.27620
H1624       H  0.15090693  0.66293099  0.47174764     0.27610
H1625       H  0.15478997  0.75812459  0.46624267     0.18210
H1626       H  0.04390078  0.65314784  0.41926090     0.18210
C1627       C  0.89133067  0.56016437  0.26817584    -0.07620
C1628       C  0.89170992  0.52886034  0.25561602    -0.18750
C1629       C  0.91980171  0.52381067  0.26586997     0.09580
C1630       C  0.94746460  0.54975459  0.29098738    -0.07540
C1631       C  0.94649764  0.58009540  0.30587821    -0.18780
C1632       C  0.91897334  0.58593353  0.29420162     0.09610
S1633       S  0.91940892  0.48451970  0.24449621    -0.33750
S1634       S  0.92217846  0.62761753  0.31097355    -0.33750
H1635       H  0.91924447  0.63727782  0.26810166     0.27620
H1636       H  0.95538636  0.50111812  0.23639259     0.27610
H1637       H  0.87066063  0.50875527  0.23581994     0.18210
H1638       H  0.96796387  0.59995452  0.32541032     0.18210
C1639       C  0.11233429  0.34127847  0.35959369    -0.07620
C1640       C  0.11010974  0.36759868  0.38348707    -0.18750
C1641       C  0.10859815  0.39545129  0.36301445     0.09580
C1642       C  0.10901566  0.39721262  0.31658964    -0.07540
C1643       C  0.11369747  0.37200558  0.29254516    -0.18780
C1644       C  0.11536301  0.34393217  0.31365472     0.09610
S1645       S  0.10300199  0.42636667  0.39782401    -0.33750
S1646       S  0.11964024  0.31177534  0.27999580    -0.33750
H1647       H  0.10591478  0.28352066  0.30940321     0.27620
H1648       H  0.11382709  0.41820408  0.43726446     0.27610
H1649       H  0.10811448  0.36544056  0.41865154     0.18210
H1650       H  0.11379953  0.37282161  0.25725528     0.18210
C1651       C  0.30053337  0.55314671  0.37368720    -0.07620
C1652       C  0.27593676  0.52650317  0.34580277    -0.18750
C1653       C  0.24037804  0.51225424  0.35229944     0.09580
C1654       C  0.22859265  0.52586281  0.38623046    -0.07540
C1655       C  0.25260181  0.55063893  0.41593993    -0.18780
C1656       C  0.28844542  0.56383747  0.41066181     0.09610
S1657       S  0.21109915  0.47937744  0.31319323    -0.33750
S1658       S  0.31706064  0.59567316  0.45066326    -0.33750
H1659       H  0.32776527  0.57205743  0.46703635     0.27620
H1660       H  0.18214380  0.46428446  0.34085375     0.27610
H1661       H  0.28423021  0.51662921  0.31827302     0.18210
H1662       H  0.24357182  0.56161052  0.44152107     0.18210
C1663       C  0.29744749  0.74382589  0.30872720    -0.07620
C1664       C  0.29408653  0.71614754  0.28088482    -0.18750
C1665       C  0.26220082  0.68439814  0.27564199     0.09580
C1666       C  0.23270932  0.67907792  0.29989032    -0.07540
C1667       C  0.23623833  0.70662664  0.32818880    -0.18780
C1668       C  0.26806405  0.73849611  0.33316666     0.09610
S1669       S  0.26032560  0.65300506  0.23497142    -0.33750
S1670       S  0.26978101  0.77061926  0.37270260    -0.33750
H1671       H  0.30455986  0.78267670  0.38572051     0.27620
H1672       H  0.22725443  0.64504945  0.21870056     0.27610
H1673       H  0.31608752  0.71993097  0.26136015     0.18210
H1674       H  0.21417153  0.70302103  0.34745398     0.18210
loop_ 
_geom_bond_atom_site_label_1 
_geom_bond_atom_site_label_2 
_geom_bond_distance 
_geom_bond_site_symmetry_2 
_ccdc_geom_bond_type 
N1            N2   1.319       .  A
N1            N7   1.316       .  A
N1          Mn30   2.201       .  S
N2            C9   1.352       .  A
N3            N5   1.314       .  A
N3            N4   1.317       .  A
N3          Mn19   2.193       .  S
N4           C10   1.349   1_455  A
N5            N6   1.317   1_455  A
N5          Mn30   2.167       .  S
N6           C10   1.347       .  A
N7            N8   1.314       .  A
N7          Mn19   2.181       .  S
N8            C9   1.348       .  A
C9         C1618   1.452       .  S
C10        C1630   1.452       .  S
N11          N17   1.317       .  A
N11          N12   1.313       .  A
N11         Mn41   2.177       .  S
N12          C20   1.349       .  A
N13          N14   1.324       .  A
N13          N15   1.313       .  A
N13         Mn19   2.203       .  S
N14          C21   1.355       .  A
N15          N16   1.326       .  A
N15         Mn41   2.226       .  S
N16          C21   1.358       .  A
N17          N18   1.316       .  A
N17         Mn19   2.186       .  S
N18          C20   1.349       .  A
Mn19        Cl43   2.501       .  S
C20        C1591   1.440       .  S
C21        C1666   1.500       .  S
N22          N23   1.327   1_455  A
N22          N28   1.313       .  A
N22         Mn30   2.221       .  S
N23          C31   1.358       .  A
N24          N26   1.310       .  A
N24          N25   1.315       .  A
N24         Mn42   2.149       .  S
N25          C32   1.346       .  A
N26          N27   1.317       .  A
N26         Mn30   2.187       .  S
N27          C32   1.354       .  A
N28          N29   1.322       .  A
N28         Mn42   2.199       .  S
N29          C31   1.350   1_455  A
Mn30        Cl43   2.545       .  S
C31        C1603   1.489       .  S
C32        C1582   1.467       .  S
N33          N34   1.306       .  A
N33          N39   1.311       .  A
N33         Mn41   2.100       .  S
N34          C44   1.339       .  A
N35          N36   1.309       .  A
N35          N37   1.311       .  A
N35         Mn42   2.169       .  S
N36          C45   1.334       .  A
N37          N38   1.332       .  A
N37         Mn41   2.247       .  S
N38          C45   1.363       .  A
N39          N40   1.327       .  A
N39         Mn42   2.262       .  S
N40          C44   1.359       .  A
Mn41        Cl43   2.555       .  S
Mn42        Cl43   2.484       .  S
C44        C1654   1.453       .  S
C45        C1642   1.485       .  S
N46          N47   1.318       .  A
N46          N52   1.313       .  A
N46         Mn75   2.188       .  S
N47          C54   1.351       .  A
N48          N50   1.310       .  A
N48          N49   1.311       .  A
N48         Mn64   2.154       .  S
N49          C55   1.343       .  A
N50          N51   1.324       .  A
N50         Mn75   2.207       .  S
N51          C55   1.361       .  A
N52          N53   1.319       .  A
N52         Mn64   2.185       .  S
N53          C54   1.350       .  A
C54        C1519   1.466       .  S
C55        C1567   1.481       .  S
N56          N62   1.315       .  A
N56          N57   1.326       .  A
N56         Mn86   2.222       .  S
N57          C65   1.356       .  A
N58          N59   1.307       .  A
N58          N60   1.311       .  A
N58         Mn64   2.151       .  S
N59          C66   1.345       .  A
N60          N61   1.321       .  A
N60         Mn86   2.183       .  S
N61          C66   1.355       .  A
N62          N63   1.321       .  A
N62         Mn64   2.190       .  S
N63          C65   1.349       .  A
Mn64        Cl88   2.515       .  S
C65        C1555   1.489       .  S
C66        C1594   1.454   1_556  S
N67          N68   1.315       .  A
N67          N73   1.317       .  A
N67         Mn75   2.176       .  S
N68          C76   1.347       .  A
N69          N71   1.317       .  A
N69          N70   1.325   1_455  A
N69         Mn87   2.238       .  S
N70          C77   1.358       .  A
N71          N72   1.321       .  A
N71         Mn75   2.196       .  S
N72          C77   1.352   1_455  A
N73          N74   1.316       .  A
N73         Mn87   2.198       .  S
N74          C76   1.353       .  A
Mn75        Cl88   2.543       .  S
C76        C1579   1.464       .  S
C77        C1534   1.498       .  S
N78          N79   1.330   1_455  A
N78          N84   1.316       .  A
N78         Mn86   2.250       .  S
N79          C89   1.363       .  A
N80          N81   1.334       .  A
N80          N82   1.315       .  A
N80         Mn87   2.271       .  S
N81          C90   1.368       .  A
N82          N83   1.310       .  A
N82         Mn86   2.147       .  S
N83          C90   1.338       .  A
N84          N85   1.312   1_455  A
N84         Mn87   2.162       .  S
N85          C89   1.343       .  A
Mn86        Cl88   2.543       .  S
Mn87        Cl88   2.527       .  S
C89        C1510   1.476       .  S
C90        C1543   1.481       .  S
N91          N92   1.321       .  A
N91          N97   1.313       .  A
N91        Mn120   2.201       .  S
N92          C99   1.356       .  A
N93          N95   1.313       .  A
N93          N94   1.317       .  A
N93        Mn109   2.181       .  S
N94         C100   1.348       .  A
N95          N96   1.320       .  A
N95        Mn120   2.188       .  S
N96         C100   1.352       .  A
N97          N98   1.310       .  A
N97        Mn109   2.160       .  S
N98          C99   1.347       .  A
C99        C1627   1.469       .  S
C100       C1435   1.463       .  S
N101        N107   1.319       .  A
N101        N102   1.319       .  A
N101       Mn131   2.187       .  S
N102        C110   1.355       .  A
N103        N104   1.320       .  A
N103        N105   1.312       .  A
N103       Mn109   2.178       .  S
N104        C111   1.352       .  A
N105        N106   1.318       .  A
N105       Mn131   2.186       .  S
N106        C111   1.349       .  A
N107        N108   1.304       .  A
N107       Mn109   2.151       .  S
N108        C110   1.336       .  A
Mn109      Cl133   2.485       .  S
C110       C1462   1.457   1_554  S
C111       C1486   1.468       .  S
N112        N113   1.325       .  A
N112        N118   1.315       .  A
N112       Mn120   2.201       .  S
N113        C121   1.355       .  A
N114        N116   1.313       .  A
N114        N115   1.312       .  A
N114       Mn132   2.146       .  S
N115        C122   1.347       .  A
N116        N117   1.314       .  A
N116       Mn120   2.187       .  S
N117        C122   1.350       .  A
N118        N119   1.319       .  A
N118       Mn132   2.202       .  S
N119        C121   1.349       .  A
Mn120      Cl133   2.542       .  S
C121       C1426   1.487       .  S
C122       C1471   1.459       .  S
N123        N124   1.303       .  A
N123        N129   1.309       .  A
N123       Mn131   2.080       .  S
N124        C134   1.334       .  A
N125        N126   1.309       .  A
N125        N127   1.309       .  A
N125       Mn132   2.180       .  S
N126        C135   1.332       .  A
N127        N128   1.332       .  A
N127       Mn131   2.247       .  S
N128        C135   1.363       .  A
N129        N130   1.339       .  A
N129       Mn132   2.317       .  S
N130        C134   1.376       .  A
Mn131      Cl133   2.548       .  S
Mn132      Cl133   2.477       .  S
C134       C1495   1.487       .  S
C135       C1450   1.489       .  S
N136        N137   1.328       .  A
N136        N142   1.314       .  A
N136       Mn165   2.244       .  S
N137        C144   1.363       .  A
N138        N140   1.313       .  A
N138        N139   1.320       .  A
N138       Mn154   2.203       .  S
N139        C145   1.353       .  A
N140        N141   1.315       .  A
N140       Mn165   2.153       .  S
N141        C145   1.345       .  A
N142        N143   1.315       .  A
N142       Mn154   2.183       .  S
N143        C144   1.349       .  A
C144       C1531   1.495       .  S
C145       C1375   1.464       .  S
N146        N152   1.322       .  A
N146        N147   1.319       .  A
N146       Mn176   2.201       .  S
N147        C155   1.355       .  A
N148        N149   1.315       .  A
N148        N150   1.311       .  A
N148       Mn154   2.158       .  S
N149        C156   1.347       .  A
N150        N151   1.324       .  A
N150       Mn176   2.213       .  S
N151        C156   1.356       .  A
N152        N153   1.306       .  A
N152       Mn154   2.172       .  S
N153        C155   1.343       .  A
Mn154      Cl178   2.499       .  S
C155       C1474   1.456       .  S
C156       C1402   1.481       .  S
N157        N158   1.329       .  A
N157        N163   1.318       .  A
N157       Mn165   2.226       .  S
N158        C166   1.356       .  A
N159        N161   1.314       .  A
N159        N160   1.312       .  A
N159       Mn177   2.139       .  S
N160        C167   1.342       .  A
N161        N162   1.314       .  A
N161       Mn165   2.172       .  S
N162        C167   1.350       .  A
N163        N164   1.327       .  A
N163       Mn177   2.229       .  S
N164        C166   1.354       .  A
Mn165      Cl178   2.536       .  S
C166       C1363   1.510       .  S
C167       C1459   1.453       .  S
N168        N169   1.304       .  A
N168        N174   1.309       .  A
N168       Mn176   2.089       .  S
N169        C179   1.332       .  A
N170        N171   1.309       .  A
N170        N172   1.307       .  A
N170       Mn177   2.152       .  S
N171        C180   1.336       .  A
N172        N173   1.347       .  A
N172       Mn176   2.329       .  S
N173        C180   1.378       .  A
N174        N175   1.336       .  A
N174       Mn177   2.333       .  S
N175        C179   1.378       .  A
Mn176      Cl178   2.530       .  S
Mn177      Cl178   2.491       .  S
C179       C1411   1.482       .  S
C180       C1390   1.533       .  S
N181        N182   1.324       .  A
N181        N187   1.314       .  A
N181       Mn210   2.226       .  S
N182        C189   1.357       .  A
N183        N185   1.317       .  A
N183        N184   1.319       .  A
N183       Mn199   2.198       .  S
N184        C190   1.353       .  A
N185        N186   1.310       .  A
N185       Mn210   2.160       .  S
N186        C190   1.341       .  A
N187        N188   1.315       .  A
N187       Mn199   2.155       .  S
N188        C189   1.346       .  A
C189       C1522   1.469       .  S
C190       C1315   1.455       .  S
N191        N197   1.315   1_554  A
N191        N192   1.321       .  A
N191       Mn221   2.205       .  S
N192        C200   1.353   1_454  A
N193        N194   1.322       .  A
N193        N195   1.313       .  A
N193       Mn199   2.206   1_554  S
N194        C201   1.354       .  A
N195        N196   1.314       .  A
N195       Mn221   2.165       .  S
N196        C201   1.346       .  A
N197        N198   1.317       .  A
N197       Mn199   2.175       .  S
N198        C200   1.349   1_455  A
Mn199      Cl223   2.548   1_556  S
C200       C1342   1.470       .  S
C201       C1438   1.460   1_455  S
N202        N203   1.334       .  A
N202        N208   1.312   1_556  A
N202       Mn210   2.255       .  S
N203        C211   1.368   1_565  A
N204        N206   1.315       .  A
N204        N205   1.337       .  A
N204       Mn222   2.284       .  S
N205        C212   1.372       .  A
N206        N207   1.308   1_554  A
N206       Mn210   2.138   1_554  S
N207        C212   1.335   1_556  A
N208        N209   1.300       .  A
N208       Mn222   2.106       .  S
N209        C211   1.334   1_564  A
Mn210      Cl223   2.500   1_556  S
C211       C1303   1.470       .  S
C212       C1291   1.494       .  S
N213        N214   1.311       .  A
N213        N219   1.316       .  A
N213       Mn221   2.172       .  S
N214        C224   1.342       .  A
N215        N216   1.327       .  A
N215        N217   1.315       .  A
N215       Mn222   2.243       .  S
N216        C225   1.359       .  A
N217        N218   1.318       .  A
N217       Mn221   2.177       .  S
N218        C225   1.349       .  A
N219        N220   1.318       .  A
N219       Mn222   2.176       .  S
N220        C224   1.350       .  A
Mn221      Cl223   2.504       .  S
Mn222      Cl223   2.548       .  S
C224       C1327   1.448       .  S
C225       C1351   1.485   1_565  S
N226        N227   1.319       .  A
N226        N232   1.312       .  A
N226       Mn255   2.184       .  S
N227        C234   1.353       .  A
N228        N230   1.311       .  A
N228        N229   1.317       .  A
N228       Mn244   2.163       .  S
N229        C235   1.349       .  A
N230        N231   1.310       .  A
N230       Mn255   2.156       .  S
N231        C235   1.344       .  A
N232        N233   1.314       .  A
N232       Mn244   2.172       .  S
N233        C234   1.349       .  A
C234       C1615   1.467       .  S
C235       C1330   1.446       .  S
N236        N242   1.314       .  A
N236        N237   1.321       .  A
N236       Mn266   2.194       .  S
N237        C245   1.352       .  A
N238        N239   1.313       .  A
N238        N240   1.312       .  A
N238       Mn244   2.166       .  S
N239        C246   1.345       .  A
N240        N241   1.322       .  A
N240       Mn266   2.201       .  S
N241        C246   1.356       .  A
N242        N243   1.318       .  A
N242       Mn244   2.186       .  S
N243        C245   1.349       .  A
Mn244      Cl268   2.541       .  S
C245       C1267   1.464   1_455  S
C246       C1378   1.473   1_455  S
N247        N248   1.325       .  A
N247        N253   1.315       .  A
N247       Mn255   2.196       .  S
N248        C256   1.355       .  A
N249        N251   1.314       .  A
N249        N250   1.328       .  A
N249       Mn267   2.216       .  S
N250        C257   1.362       .  A
N251        N252   1.311       .  A
N251       Mn255   2.171       .  S
N252        C257   1.342       .  A
N253        N254   1.312       .  A
N253       Mn267   2.203       .  S
N254        C256   1.350       .  A
Mn255      Cl268   2.482       .  S
C256       C1255   1.483   1_565  S
C257       C1246   1.474       .  S
N258        N259   1.309       .  A
N258        N264   1.317       .  A
N258       Mn266   2.184       .  S
N259        C269   1.343       .  A
N260        N261   1.313       .  A
N260        N262   1.317       .  A
N260       Mn267   2.207       .  S
N261        C270   1.349       .  A
N262        N263   1.325       .  A
N262       Mn266   2.207       .  S
N263        C270   1.356       .  A
N264        N265   1.320       .  A
N264       Mn267   2.186       .  S
N265        C269   1.355       .  A
Mn266      Cl268   2.495       .  S
Mn267      Cl268   2.585       .  S
C269       C1318   1.452       .  S
C270       C1258   1.487   1_565  S
N271        N272   1.323       .  A
N271        N277   1.314       .  A
N271       Mn300   2.195       .  S
N272        C279   1.354       .  A
N273        N275   1.316       .  A
N273        N274   1.324       .  A
N273       Mn289   2.211       .  S
N274        C280   1.354       .  A
N275        N276   1.324       .  A
N275       Mn300   2.233       .  S
N276        C280   1.357       .  A
N277        N278   1.314       .  A
N277       Mn289   2.185       .  S
N278        C279   1.348       .  A
C279       C1186   1.466       .  S
C280       C1174   1.488       .  S
N281        N287   1.317       .  A
N281        N282   1.322       .  A
N281       Mn311   2.217       .  S
N282        C290   1.358       .  A
N283        N284   1.319       .  A
N283        N285   1.315       .  A
N283       Mn289   2.180       .  S
N284        C291   1.350       .  A
N285        N286   1.327       .  A
N285       Mn311   2.243       .  S
N286        C291   1.361       .  A
N287        N288   1.314       .  A
N287       Mn289   2.180       .  S
N288        C290   1.346       .  A
Mn289      Cl313   2.533       .  S
C290       C1207   1.475   1_554  S
C291       C1498   1.500       .  S
N292        N293   1.316       .  A
N292        N298   1.315       .  A
N292       Mn300   2.174       .  S
N293        C301   1.346       .  A
N294        N296   1.316       .  A
N294        N295   1.316       .  A
N294       Mn312   2.178       .  S
N295        C302   1.347       .  A
N296        N297   1.325       .  A
N296       Mn300   2.232       .  S
N297        C302   1.360       .  A
N298        N299   1.330       .  A
N298       Mn312   2.233       .  S
N299        C301   1.360       .  A
Mn300      Cl313   2.557       .  S
C301       C1306   1.494       .  S
C302       C1219   1.484       .  S
N303        N304   1.312       .  A
N303        N309   1.315       .  A
N303       Mn311   2.141       .  S
N304        C314   1.342       .  A
N305        N306   1.313       .  A
N305        N307   1.317       .  A
N305       Mn312   2.163       .  S
N306        C315   1.337       .  A
N307        N308   1.334       .  A
N307       Mn311   2.277       .  S
N308        C315   1.368       .  A
N309        N310   1.336       .  A
N309       Mn312   2.302       .  S
N310        C314   1.371       .  A
Mn311      Cl313   2.555       .  S
Mn312      Cl313   2.514       .  S
C314       C1231   1.499       .  S
C315       C1198   1.490       .  S
N316        N317   1.315       .  A
N316        N322   1.312       .  A
N316       Mn345   2.161       .  S
N317        C324   1.351       .  A
N318        N320   1.316       .  A
N318        N319   1.325       .  A
N318       Mn334   2.206       .  S
N319        C325   1.360       .  A
N320        N321   1.311       .  A
N320       Mn345   2.208       .  S
N321        C325   1.348       .  A
N322        N323   1.313       .  A
N322       Mn334   2.169       .  S
N323        C324   1.344       .  A
C324       C1135   1.453       .  S
C325       C1123   1.483       .  S
N326        N332   1.314       .  A
N326        N327   1.327       .  A
N326       Mn356   2.240       .  S
N327        C335   1.361       .  A
N328        N329   1.315       .  A
N328        N330   1.317       .  A
N328       Mn334   2.172       .  S
N329        C336   1.343       .  A
N330        N331   1.333       .  A
N330       Mn356   2.259       .  S
N331        C336   1.364       .  A
N332        N333   1.315       .  A
N332       Mn334   2.165       .  S
N333        C335   1.346       .  A
Mn334      Cl358   2.513       .  S
C335       C1222   1.484       .  S
C336       C1414   1.496       .  S
N337        N338   1.315       .  A
N337        N343   1.314       .  A
N337       Mn345   2.201       .  S
N338        C346   1.350       .  A
N339        N341   1.312       .  A
N339        N340   1.313       .  A
N339       Mn357   2.167       .  S
N340        C347   1.345       .  A
N341        N342   1.322       .  A
N341       Mn345   2.199       .  S
N342        C347   1.359       .  A
N343        N344   1.327       .  A
N343       Mn357   2.205       .  S
N344        C346   1.356       .  A
Mn345      Cl358   2.570       .  S
C346       C1126   1.492       .  S
C347       C1210   1.477       .  S
N348        N349   1.314       .  A
N348        N354   1.314       .  A
N348       Mn356   2.182       .  S
N349        C359   1.347       .  A
N350        N351   1.307       .  A
N350        N352   1.316       .  A
N350       Mn357   2.149       .  S
N351        C360   1.337       .  A
N352        N353   1.331       .  A
N352       Mn356   2.259       .  S
N353        C360   1.367       .  A
N354        N355   1.326       .  A
N354       Mn357   2.223       .  S
N355        C359   1.357       .  A
Mn356      Cl358   2.550       .  S
Mn357      Cl358   2.490       .  S
C359       C1159   1.484       .  S
C360       C1150   1.478       .  S
N361        N362   1.326       .  A
N361        N367   1.316       .  A
N361       Mn390   2.240       .  S
N362        C369   1.357       .  A
N363        N365   1.322       .  A
N363        N364   1.316       .  A
N363       Mn379   2.198       .  S
N364        C370   1.348       .  A
N365        N366   1.327       .  A
N365       Mn390   2.259       .  S
N366        C370   1.365       .  A
N367        N368   1.324       .  A
N367       Mn379   2.203       .  S
N368        C369   1.355       .  A
C369       C1663   1.497       .  S
C370       C1099   1.499       .  S
N371        N377   1.312       .  A
N371        N372   1.319   1_565  A
N371       Mn401   2.198       .  S
N372        C380   1.352   1_545  A
N373        N374   1.325       .  A
N373        N375   1.316       .  A
N373       Mn379   2.241       .  S
N374        C381   1.361       .  A
N375        N376   1.317       .  A
N375       Mn401   2.176       .  S
N376        C381   1.347       .  A
N377        N378   1.330       .  A
N377       Mn379   2.228       .  S
N378        C380   1.360       .  A
Mn379      Cl403   2.540       .  S
C380       C1195   1.502   1_565  S
C381       C1243   1.484       .  S
N382        N383   1.341       .  A
N382        N388   1.314       .  A
N382       Mn390   2.291       .  S
N383        C391   1.370       .  A
N384        N386   1.319       .  A
N384        N385   1.332       .  A
N384       Mn402   2.279       .  S
N385        C392   1.365       .  A
N386        N387   1.310       .  A
N386       Mn390   2.157       .  S
N387        C392   1.341       .  A
N388        N389   1.311       .  A
N388       Mn402   2.159       .  S
N389        C391   1.336       .  A
Mn390      Cl403   2.547       .  S
C391       C1078   1.520       .  S
C392       C1111   1.494       .  S
N393        N394   1.324       .  A
N393        N399   1.313       .  A
N393       Mn401   2.219       .  S
N394        C404   1.357       .  A
N395        N396   1.324       .  A
N395        N397   1.315       .  A
N395       Mn402   2.216       .  S
N396        C405   1.353   1_565  A
N397        N398   1.324   1_565  A
N397       Mn401   2.185       .  S
N398        C405   1.348       .  A
N399        N400   1.321       .  A
N399       Mn402   2.193       .  S
N400        C404   1.353       .  A
Mn401      Cl403   2.550       .  S
Mn402      Cl403   2.507       .  S
C404       C1087   1.492       .  S
C405       C1063   1.485       .  S
N406        N407   1.319       .  A
N406        N412   1.312       .  A
N406       Mn435   2.200       .  S
N407        C414   1.350       .  A
N408        N410   1.322       .  A
N408        N409   1.320       .  A
N408       Mn424   2.234       .  S
N409        C415   1.353       .  A
N410        N411   1.325       .  A
N410       Mn435   2.231       .  S
N411        C415   1.360       .  A
N412        N413   1.318       .  A
N412       Mn424   2.151       .  S
N413        C414   1.347       .  A
C414       C1570   1.459       .  S
C415       C1090   1.495       .  S
N416        N422   1.311       .  A
N416        N417   1.328   1_565  A
N416       Mn446   2.238       .  S
N417        C425   1.364   1_545  A
N418        N419   1.328       .  A
N418        N420   1.317       .  A
N418       Mn424   2.258       .  S
N419        C426   1.364       .  A
N420        N421   1.322       .  A
N420       Mn446   2.205       .  S
N421        C426   1.352       .  A
N422        N423   1.316       .  A
N422       Mn424   2.157       .  S
N423        C425   1.343       .  A
Mn424      Cl448   2.532       .  S
C425       C1147   1.491   1_565  S
C426       C1294   1.506       .  S
N427        N428   1.336       .  A
N427        N433   1.315       .  A
N427       Mn435   2.279       .  S
N428        C436   1.364       .  A
N429        N431   1.314       .  A
N429        N430   1.333       .  A
N429       Mn447   2.275       .  S
N430        C437   1.368       .  A
N431        N432   1.305       .  A
N431       Mn435   2.144       .  S
N432        C437   1.339       .  A
N433        N434   1.314       .  A
N433       Mn447   2.139       .  S
N434        C436   1.336       .  A
Mn435      Cl448   2.520       .  S
C436       C1039   1.504       .  S
C437       C1051   1.481       .  S
N438        N439   1.331       .  A
N438        N444   1.313       .  A
N438       Mn446   2.253       .  S
N439        C449   1.365       .  A
N440        N441   1.321       .  A
N440        N442   1.318       .  A
N440       Mn447   2.213       .  S
N441        C450   1.352   1_565  A
N442        N443   1.327   1_565  A
N442       Mn446   2.214       .  S
N443        C450   1.354       .  A
N444        N445   1.313       .  A
N444       Mn447   2.152       .  S
N445        C449   1.344       .  A
Mn446      Cl448   2.542       .  S
Mn447      Cl448   2.529       .  S
C449       C1102   1.501   1_556  S
C450       C1027   1.492       .  S
N451        N452   1.321       .  A
N451        N457   1.314       .  A
N451       Mn480   2.208       .  S
N452        C459   1.353       .  A
N453        N455   1.324       .  A
N453        N454   1.322       .  A
N453       Mn469   2.233       .  S
N454        C460   1.353       .  A
N455        N456   1.328       .  A
N455       Mn480   2.256       .  S
N456        C460   1.362       .  A
N457        N458   1.317       .  A
N457       Mn469   2.165       .  S
N458        C459   1.348       .  A
C459       C1483   1.468       .  S
C460       C1003   1.501   1_554  S
N461        N467   1.311       .  A
N461        N462   1.315       .  A
N461       Mn491   2.173       .  S
N462        C470   1.349       .  A
N463        N464   1.326       .  A
N463        N465   1.319       .  A
N463       Mn469   2.251       .  S
N464        C471   1.362       .  A
N465        N466   1.322       .  A
N465       Mn491   2.217       .  S
N466        C471   1.354       .  A
N467        N468   1.318       .  A
N467       Mn469   2.165       .  S
N468        C470   1.348       .  A
Mn469      Cl493   2.519       .  S
C470        C991   1.457       .  S
C471       C1606   1.503       .  S
N472        N473   1.335       .  A
N472        N478   1.311       .  A
N472       Mn480   2.244       .  S
N473        C481   1.363       .  A
N474        N476   1.318       .  A
N474        N475   1.334       .  A
N474       Mn492   2.302       .  S
N475        C482   1.369       .  A
N476        N477   1.315       .  A
N476       Mn480   2.163       .  S
N477        C482   1.347       .  A
N478        N479   1.311       .  A
N478       Mn492   2.190       .  S
N479        C481   1.338       .  A
Mn480      Cl493   2.562       .  S
C481       C1066   1.501       .  S
C482       C1234   1.501       .  S
N483        N484   1.325       .  A
N483        N489   1.313       .  A
N483       Mn491   2.220       .  S
N484        C494   1.357       .  A
N485        N486   1.324       .  A
N485        N487   1.316       .  A
N485       Mn492   2.234       .  S
N486        C495   1.355       .  A
N487        N488   1.335       .  A
N487       Mn491   2.232       .  S
N488        C495   1.361       .  A
N489        N490   1.325       .  A
N489       Mn492   2.207       .  S
N490        C494   1.356       .  A
Mn491      Cl493   2.553       .  S
Mn492      Cl493   2.498       .  S
C494       C1018   1.499       .  S
C495        C979   1.530       .  S
N496        N497   1.321       .  A
N496        N502   1.307       .  A
N496       Mn525   2.190       .  S
N497        C504   1.353       .  A
N498        N500   1.322       .  A
N498        N499   1.323       .  A
N498       Mn514   2.246       .  S
N499        C505   1.357       .  A
N500        N501   1.325       .  A
N500       Mn525   2.234       .  S
N501        C505   1.359       .  A
N502        N503   1.319       .  A
N502       Mn514   2.167       .  S
N503        C504   1.353       .  A
C504       C1399   1.480       .  S
C505       C1015   1.499       .  S
N506        N512   1.313       .  A
N506        N507   1.316       .  A
N506       Mn536   2.180       .  S
N507        C515   1.349       .  A
N508        N509   1.324       .  A
N508        N510   1.320       .  A
N508       Mn514   2.244       .  S
N509        C516   1.359       .  A
N510        N511   1.321       .  A
N510       Mn536   2.205       .  S
N511        C516   1.352       .  A
N512        N513   1.316       .  A
N512       Mn514   2.159       .  S
N513        C515   1.344       .  A
Mn514      Cl538   2.524       .  S
C515        C967   1.460       .  S
C516       C1507   1.488       .  S
N517        N518   1.332       .  A
N517        N523   1.316       .  A
N517       Mn525   2.251       .  S
N518        C526   1.359       .  A
N519        N521   1.314       .  A
N519        N520   1.330       .  A
N519       Mn537   2.276       .  S
N520        C527   1.365       .  A
N521        N522   1.306       .  A
N521       Mn525   2.153       .  S
N522        C527   1.345       .  A
N523        N524   1.315       .  A
N523       Mn537   2.167       .  S
N524        C526   1.341       .  A
Mn525      Cl538   2.516       .  S
C526       C1030   1.499       .  S
C527       C1162   1.480       .  S
N528        N529   1.328       .  A
N528        N534   1.311       .  A
N528       Mn536   2.225       .  S
N529        C539   1.360       .  A
N530        N531   1.329       .  A
N530        N532   1.317       .  A
N530       Mn537   2.245       .  S
N531        C540   1.360       .  A
N532        N533   1.330       .  A
N532       Mn536   2.231       .  S
N533        C540   1.358       .  A
N534        N535   1.323       .  A
N534       Mn537   2.194       .  S
N535        C539   1.353       .  A
Mn536      Cl538   2.536       .  S
Mn537      Cl538   2.514       .  S
C539       C1006   1.503       .  S
C540        C955   1.527       .  S
N541        N542   1.312       .  A
N541        N547   1.313       .  A
N541       Mn570   2.178       .  S
N542        C549   1.349       .  A
N543        N545   1.319   1_556  A
N543        N544   1.328   1_455  A
N543       Mn559   2.236       .  S
N544        C550   1.358   1_556  A
N545        N546   1.316       .  A
N545       Mn570   2.154       .  S
N546        C550   1.339   1_455  A
N547        N548   1.319       .  A
N547       Mn559   2.186   1_554  S
N548        C549   1.355       .  A
C549        C994   1.468   1_455  S
C550        C943   1.488       .  S
N551        N557   1.325       .  A
N551        N552   1.312       .  A
N551       Mn581   2.185       .  S
N552        C560   1.341       .  A
N553        N554   1.321       .  A
N553        N555   1.312       .  A
N553       Mn559   2.183       .  S
N554        C561   1.351       .  A
N555        N556   1.328       .  A
N555       Mn581   2.236       .  S
N556        C561   1.361       .  A
N557        N558   1.323       .  A
N557       Mn559   2.227       .  S
N558        C560   1.356       .  A
Mn559      Cl583   2.569   1_556  S
C560        C919   1.468       .  S
C561       C1546   1.505       .  S
N562        N563   1.322       .  A
N562        N568   1.315       .  A
N562       Mn570   2.213       .  S
N563        C571   1.355       .  A
N564        N566   1.311       .  A
N564        N565   1.322       .  A
N564       Mn582   2.190       .  S
N565        C572   1.356       .  A
N566        N567   1.309       .  A
N566       Mn570   2.150       .  S
N567        C572   1.341       .  A
N568        N569   1.323       .  A
N568       Mn582   2.206       .  S
N569        C571   1.353       .  A
Mn570      Cl583   2.475       .  S
C571       C1354   1.484       .  S
C572        C934   1.479       .  S
N573        N574   1.307       .  A
N573        N579   1.319   1_556  A
N573       Mn581   2.174       .  S
N574        C584   1.338   1_556  A
N575        N576   1.313       .  A
N575        N577   1.313   1_554  A
N575       Mn582   2.140       .  S
N576        C585   1.340   1_554  A
N577        N578   1.333       .  A
N577       Mn581   2.264       .  S
N578        C585   1.364       .  A
N579        N580   1.329       .  A
N579       Mn582   2.238       .  S
N580        C584   1.361       .  A
Mn581      Cl583   2.482   1_556  S
Mn582      Cl583   2.575       .  S
C584        C910   1.478   1_554  S
C585       C1171   1.482       .  S
N586        N587   1.313       .  A
N586        N592   1.314       .  A
N586       Mn615   2.184       .  S
N587        C594   1.353       .  A
N588        N590   1.315       .  A
N588        N589   1.327   1_455  A
N588       Mn604   2.235       .  S
N589        C595   1.361       .  A
N590        N591   1.318       .  A
N590       Mn615   2.171       .  S
N591        C595   1.346   1_455  A
N592        N593   1.317       .  A
N592       Mn604   2.184       .  S
N593        C594   1.353       .  A
C594        C970   1.471   1_455  S
C595        C895   1.500       .  S
N596        N602   1.317       .  A
N596        N597   1.308       .  A
N596       Mn626   2.172       .  S
N597        C605   1.343       .  A
N598        N599   1.321       .  A
N598        N600   1.314       .  A
N598       Mn604   2.208       .  S
N599        C606   1.354       .  A
N600        N601   1.321       .  A
N600       Mn626   2.182       .  S
N601        C606   1.348       .  A
N602        N603   1.322       .  A
N602       Mn604   2.202       .  S
N603        C605   1.357       .  A
Mn604      Cl628   2.577       .  S
C605        C931   1.481       .  S
C606       C1639   1.468       .  S
N607        N608   1.327       .  A
N607        N613   1.317       .  A
N607       Mn615   2.226       .  S
N608        C616   1.360       .  A
N609        N611   1.314       .  A
N609        N610   1.324       .  A
N609       Mn627   2.191       .  S
N610        C617   1.357       .  A
N611        N612   1.312       .  A
N611       Mn615   2.172       .  S
N612        C617   1.341       .  A
N613        N614   1.314       .  A
N613       Mn627   2.203       .  S
N614        C616   1.348       .  A
Mn615      Cl628   2.463       .  S
C616       C1279   1.493       .  S
C617        C922   1.471       .  S
N618        N619   1.311       .  A
N618        N624   1.317       .  A
N618       Mn626   2.183       .  S
N619        C629   1.344       .  A
N620        N621   1.311       .  A
N620        N622   1.311       .  A
N620       Mn627   2.198       .  S
N621        C630   1.351       .  A
N622        N623   1.322       .  A
N622       Mn626   2.160       .  S
N623        C630   1.350       .  A
N624        N625   1.324       .  A
N624       Mn627   2.203       .  S
N625        C629   1.356       .  A
Mn626      Cl628   2.469       .  S
Mn627      Cl628   2.597       .  S
C629        C883   1.460       .  S
C630       C1282   1.479       .  S
N631        N632   1.318       .  A
N631        N637   1.310       .  A
N631       Mn660   2.193       .  S
N632        C639   1.350       .  A
N633        N635   1.324       .  A
N633        N634   1.317       .  A
N633       Mn649   2.220       .  S
N634        C640   1.348       .  A
N635        N636   1.328       .  A
N635       Mn660   2.250       .  S
N636        C640   1.364       .  A
N637        N638   1.321       .  A
N637       Mn649   2.167       .  S
N638        C639   1.354       .  A
C639       C1339   1.479       .  S
C640        C847   1.491       .  S
N641        N647   1.312       .  A
N641        N642   1.329       .  A
N641       Mn671   2.240   1_556  S
N642        C650   1.364       .  A
N643        N644   1.327       .  A
N643        N645   1.316       .  A
N643       Mn649   2.237   1_554  S
N644        C651   1.363       .  A
N645        N646   1.317       .  A
N645       Mn671   2.199       .  S
N646        C651   1.350       .  A
N647        N648   1.316       .  A
N647       Mn649   2.170       .  S
N648        C650   1.344       .  A
Mn649      Cl673   2.536       .  S
C650        C874   1.494       .  S
C651       C1423   1.501       .  S
N652        N653   1.343   1_565  A
N652        N658   1.311       .  A
N652       Mn660   2.316       .  S
N653        C661   1.369       .  A
N654        N656   1.314       .  A
N654        N655   1.336       .  A
N654       Mn672   2.315       .  S
N655        C662   1.372       .  A
N656        N657   1.304       .  A
N656       Mn660   2.129   1_554  S
N657        C662   1.330       .  A
N658        N659   1.315       .  A
N658       Mn672   2.157   1_556  S
N659        C661   1.340   1_565  A
Mn660      Cl673   2.503       .  S
C661        C982   1.535   1_556  S
C662        C946   1.486   1_565  S
N663        N664   1.330       .  A
N663        N669   1.316       .  A
N663       Mn671   2.254       .  S
N664        C674   1.364       .  A
N665        N666   1.327       .  A
N665        N667   1.317       .  A
N665       Mn672   2.231   1_556  S
N666        C675   1.356       .  A
N667        N668   1.325       .  A
N667       Mn671   2.201   1_556  S
N668        C675   1.352       .  A
N669        N670   1.320       .  A
N669       Mn672   2.194       .  S
N670        C674   1.350       .  A
Mn671      Cl673   2.537   1_554  S
Mn672      Cl673   2.513   1_554  S
C674        C859   1.504       .  S
C675       C1042   1.505       .  S
N676        N677   1.320       .  A
N676        N682   1.311       .  A
N676       Mn705   2.202       .  S
N677        C684   1.351       .  A
N678        N680   1.324       .  A
N678        N679   1.321       .  A
N678       Mn694   2.244       .  S
N679        C685   1.353       .  A
N680        N681   1.327       .  A
N680       Mn705   2.244       .  S
N681        C685   1.363       .  A
N682        N683   1.320       .  A
N682       Mn694   2.167       .  S
N683        C684   1.353       .  A
C684       C1270   1.480       .  S
C685        C862   1.504       .  S
N686        N692   1.313       .  A
N686        N687   1.327       .  A
N686       Mn716   2.240       .  S
N687        C695   1.362       .  A
N688        N689   1.333       .  A
N688        N690   1.318       .  A
N688       Mn694   2.270       .  S
N689        C696   1.368       .  A
N690        N691   1.321       .  A
N690       Mn716   2.224       .  S
N691        C696   1.353       .  A
N692        N693   1.318       .  A
N692       Mn694   2.166       .  S
N693        C695   1.344       .  A
Mn694      Cl718   2.546       .  S
C695        C835   1.481       .  S
C696       C1366   1.521       .  S
N697        N698   1.343   1_565  A
N697        N703   1.314       .  A
N697       Mn705   2.309       .  S
N698        C706   1.371       .  A
N699        N701   1.316       .  A
N699        N700   1.336       .  A
N699       Mn717   2.317       .  S
N700        C707   1.373       .  A
N701        N702   1.306       .  A
N701       Mn705   2.125       .  S
N702        C707   1.334       .  A
N703        N704   1.315       .  A
N703       Mn717   2.142       .  S
N704        C706   1.337   1_565  A
Mn705      Cl718   2.521       .  S
C706        C958   1.529       .  S
C707        C898   1.487   1_565  S
N708        N709   1.329       .  A
N708        N714   1.315       .  A
N708       Mn716   2.252       .  S
N709        C719   1.363       .  A
N710        N711   1.323       .  A
N710        N712   1.317       .  A
N710       Mn717   2.235       .  S
N711        C720   1.355       .  A
N712        N713   1.331       .  A
N712       Mn716   2.227       .  S
N713        C720   1.359       .  A
N714        N715   1.317       .  A
N714       Mn717   2.173       .  S
N715        C719   1.347       .  A
Mn716      Cl718   2.548       .  S
Mn717      Cl718   2.518       .  S
C719        C850   1.493       .  S
C720       C1075   1.519       .  S
N721        N722   1.327       .  A
N721        N727   1.315       .  A
N721       Mn750   2.239       .  S
N722        C729   1.359       .  A
N723        N725   1.316       .  A
N723        N724   1.310       .  A
N723       Mn739   2.173       .  S
N724        C730   1.342       .  A
N725        N726   1.328       .  A
N725       Mn750   2.222       .  S
N726        C730   1.361       .  A
N727        N728   1.316       .  A
N727       Mn739   2.181       .  S
N728        C729   1.349       .  A
C729       C1114   1.477       .  S
C730        C811   1.472       .  S
N731        N737   1.315       .  A
N731        N732   1.322       .  A
N731       Mn761   2.218       .  S
N732        C740   1.358       .  A
N733        N734   1.318       .  A
N733        N735   1.320       .  A
N733       Mn739   2.188       .  S
N734        C741   1.346       .  A
N735        N736   1.316       .  A
N735       Mn761   2.189       .  S
N736        C741   1.350       .  A
N737        N738   1.313       .  A
N737       Mn739   2.158       .  S
N738        C740   1.344       .  A
Mn739      Cl763   2.480       .  S
C740        C886   1.465       .  S
C741       C1651   1.481       .  S
N742        N743   1.339       .  A
N742        N748   1.309       .  A
N742       Mn750   2.282       .  S
N743        C751   1.375       .  A
N744        N746   1.310       .  A
N744        N745   1.331       .  A
N744       Mn762   2.262       .  S
N745        C752   1.364       .  A
N746        N747   1.306       .  A
N746       Mn750   2.106       .  S
N747        C752   1.339       .  A
N748        N749   1.303       .  A
N748       Mn762   2.172       .  S
N749        C751   1.328       .  A
Mn750      Cl763   2.591       .  S
C751       C1447   1.504       .  S
C752        C838   1.466       .  S
N753        N754   1.330       .  A
N753        N759   1.316       .  A
N753       Mn761   2.257       .  S
N754        C764   1.365       .  A
N755        N756   1.315       .  A
N755        N757   1.307       .  A
N755       Mn762   2.174       .  S
N756        C765   1.348       .  A
N757        N758   1.324       .  A
N757       Mn761   2.184       .  S
N758        C765   1.357       .  A
N759        N760   1.309       .  A
N759       Mn762   2.154       .  S
N760        C764   1.344       .  A
Mn761      Cl763   2.568       .  S
Mn762      Cl763   2.446       .  S
C764        C823   1.479       .  S
C765       C1183   1.479       .  S
N766        N767   1.325       .  A
N766        N772   1.317       .  A
N766       Mn795   2.205       .  S
N767        C774   1.355       .  A
N768        N770   1.310       .  A
N768        N769   1.316       .  A
N768       Mn784   2.174       .  S
N769        C775   1.351       .  A
N770        N771   1.313       .  A
N770       Mn795   2.148       .  S
N771        C775   1.344       .  A
N772        N773   1.314       .  A
N772       Mn784   2.208       .  S
N773        C774   1.353       .  A
C774        C907   1.479       .  S
C775       C1138   1.450       .  S
N776        N782   1.318       .  A
N776        N777   1.323       .  A
N776       Mn806   2.217       .  S
N777        C785   1.357       .  A
N778        N779   1.316       .  A
N778        N780   1.312       .  A
N778       Mn784   2.165       .  S
N779        C786   1.346       .  A
N780        N781   1.329       .  A
N780       Mn806   2.244       .  S
N781        C786   1.363       .  A
N782        N783   1.319       .  A
N782       Mn784   2.202       .  S
N783        C785   1.350       .  A
Mn784      Cl808   2.514       .  S
C785        C814   1.490       .  S
C786       C1558   1.493       .  S
N787        N788   1.331       .  A
N787        N793   1.316       .  A
N787       Mn795   2.221       .  S
N788        C796   1.356       .  A
N789        N791   1.311       .  A
N789        N790   1.320       .  A
N789       Mn807   2.173       .  S
N790        C797   1.348   1_556  A
N791        N792   1.322   1_556  A
N791       Mn795   2.197       .  S
N792        C797   1.354       .  A
N793        N794   1.325       .  A
N793       Mn807   2.223       .  S
N794        C796   1.355       .  A
Mn795      Cl808   2.550       .  S
C796       C1387   1.522       .  S
C797        C826   1.475       .  S
N798        N799   1.311       .  A
N798        N804   1.318       .  A
N798       Mn806   2.189       .  S
N799        C809   1.351       .  A
N800        N801   1.308       .  A
N800        N802   1.313       .  A
N800       Mn807   2.142       .  S
N801        C810   1.339       .  A
N802        N803   1.331       .  A
N802       Mn806   2.245       .  S
N803        C810   1.364       .  A
N804        N805   1.327       .  A
N804       Mn807   2.233       .  S
N805        C809   1.358       .  A
Mn806      Cl808   2.549       .  S
Mn807      Cl808   2.510       .  S
C809       C1054   1.479       .  S
C810        C871   1.476       .  S
C811        C812   1.402       .  A
C811        C816   1.411       .  A
C812        C813   1.398       .  A
C812        H821   1.085       .  S
C813        C814   1.418       .  A
C813        S817   1.800       .  S
C814        C815   1.408       .  A
C815        C816   1.402       .  A
C815        H822   1.083       .  S
C816        S818   1.800       .  S
S817        H820   1.405       .  S
S818        H819   1.407       .  S
C823        C824   1.404       .  A
C823        C828   1.418       .  A
C824        C825   1.405       .  A
C824        H833   1.083       .  S
C825        C826   1.412       .  A
C825        S829   1.799       .  S
C826        C827   1.397       .  A
C827        C828   1.396       .  A
C827        H834   1.084       .  S
C828        S830   1.805       .  S
S829        H832   1.407       .  S
S830        H831   1.407       .  S
C835        C836   1.404       .  A
C835        C840   1.408       .  A
C836        C837   1.403       .  A
C836        H845   1.084       .  S
C837        C838   1.411       .  A
C837        S841   1.801       .  S
C838        C839   1.405       .  A
C839        C840   1.403       .  A
C839        H846   1.084       .  S
C840        S842   1.796       .  S
S841        H844   1.407       .  S
S842        H843   1.407       .  S
C847        C848   1.410       .  A
C847        C852   1.411       .  A
C848        C849   1.405       .  A
C848        H857   1.083       .  S
C849        C850   1.412       .  A
C849        S853   1.801       .  S
C850        C851   1.411       .  A
C851        C852   1.404       .  A
C851        H858   1.084       .  S
C852        S854   1.802       .  S
S853        H856   1.407       .  S
S854        H855   1.407       .  S
C859        C860   1.404       .  A
C859        C864   1.419       .  A
C860        C861   1.412       .  A
C860        H869   1.079       .  S
C861        C862   1.422       .  A
C861        S865   1.809       .  S
C862        C863   1.405       .  A
C863        C864   1.407       .  A
C863        H870   1.083       .  S
C864        S866   1.798       .  S
S865        H868   1.407       .  S
S866        H867   1.408       .  S
C871        C872   1.402       .  A
C871        C876   1.409       .  A
C872        C873   1.403       .  A
C872        H881   1.084       .  S
C873        C874   1.423       .  A
C873        S877   1.801       .  S
C874        C875   1.403       .  A
C875        C876   1.404       .  A
C875        H882   1.082       .  S
C876        S878   1.790       .  S
S877        H880   1.405       .  S
S878        H879   1.407       .  S
C883        C884   1.405       .  A
C883        C888   1.406       .  A
C884        C885   1.393       .  A
C884        H893   1.085       .  S
C885        C886   1.407       .  A
C885        S889   1.804       .  S
C886        C887   1.407       .  A
C887        C888   1.397       .  A
C887        H894   1.084       .  S
C888        S890   1.803       .  S
S889        H892   1.407       .  S
S890        H891   1.404       .  S
C895        C896   1.417       .  A
C895        C900   1.411       .  A
C896        C897   1.409       .  A
C896        H905   1.083       .  S
C897        C898   1.406       .  A
C897        S901   1.801       .  S
C898        C899   1.412       .  A
C899        C900   1.399       .  A
C899        H906   1.083       .  S
C900        S902   1.799       .  S
S901        H904   1.407       .  S
S902        H903   1.407       .  S
C907        C908   1.396       .  A
C907        C912   1.417   1_556  A
C908        C909   1.383       .  A
C908        H917   1.085       .  S
C909        C910   1.423       .  A
C909        S913   1.811       .  S
C910        C911   1.403   1_556  A
C911        C912   1.408       .  A
C911        H918   1.084       .  S
C912        S914   1.792       .  S
S913        H916   1.404       .  S
S914        H915   1.404       .  S
C919        C920   1.405       .  A
C919        C924   1.410       .  A
C920        C921   1.397       .  A
C920        H929   1.084       .  S
C921        C922   1.413       .  A
C921        S925   1.805       .  S
C922        C923   1.405       .  A
C923        C924   1.398       .  A
C923        H930   1.084       .  S
C924        S926   1.804       .  S
S925        H928   1.407       .  S
S926        H927   1.407       .  S
C931        C932   1.411       .  A
C931        C936   1.411       .  A
C932        C933   1.392       .  A
C932        H941   1.084       .  S
C933        C934   1.411       .  A
C933        S937   1.802       .  S
C934        C935   1.411       .  A
C935        C936   1.396       .  A
C935        H942   1.084       .  S
C936        S938   1.802       .  S
S937        H940   1.408       .  S
S938        H939   1.408       .  S
C943        C944   1.391   1_554  A
C943        C948   1.426       .  A
C944        C945   1.398       .  A
C944        H953   1.083       .  S
C945        C946   1.429   1_556  A
C945        S949   1.811       .  S
C946        C947   1.398       .  A
C947        C948   1.408       .  A
C947        H954   1.084       .  S
C948        S950   1.802       .  S
S949        H952   1.406       .  S
S950        H951   1.408       .  S
C955        C956   1.408       .  A
C955        C960   1.426       .  A
C956        C957   1.412       .  A
C956        H965   1.083       .  S
C957        C958   1.426       .  A
C957        S961   1.804       .  S
C958        C959   1.408       .  A
C959        C960   1.422       .  A
C959        H966   1.073       .  S
C960        S962   1.798       .  S
S961        H964   1.408       .  S
S962        H963   1.407       .  S
C967        C968   1.400       .  A
C967        C972   1.412       .  A
C968        C969   1.395       .  A
C968        H977   1.084       .  S
C969        C970   1.412       .  A
C969        S973   1.802       .  S
C970        C971   1.403       .  A
C971        C972   1.391       .  A
C971        H978   1.083   1_655  S
C972        S974   1.811       .  S
S973        H976   1.408   1_655  S
S974        H975   1.407       .  S
C979        C980   1.420       .  A
C979        C984   1.421       .  A
C980        C981   1.429       .  A
C980        H989   1.083       .  S
C981        C982   1.422       .  A
C981        S985   1.797       .  S
C982        C983   1.414       .  A
C983        C984   1.404       .  A
C983        H990   1.082       .  S
C984        S986   1.803       .  S
S985        H988   1.406   1_554  S
S986        H987   1.408       .  S
C991        C992   1.399       .  A
C991        C996   1.408       .  A
C992        C993   1.388       .  A
C992       H1001   1.085       .  S
C993        C994   1.413       .  A
C993        S997   1.806   1_655  S
C994        C995   1.405       .  A
C995        C996   1.396       .  A
C995       H1002   1.083   1_554  S
C996        S998   1.802   1_554  S
S997       H1000   1.408       .  S
S998        H999   1.406   1_556  S
C1003      C1004   1.409       .  A
C1003      C1008   1.415       .  A
C1004      C1005   1.409       .  A
C1004      H1013   1.083       .  S
C1005      C1006   1.416       .  A
C1005      S1009   1.801       .  S
C1006      C1007   1.410       .  A
C1007      C1008   1.409       .  A
C1007      H1014   1.084       .  S
C1008      S1010   1.802       .  S
S1009      H1012   1.407       .  S
S1010      H1011   1.407       .  S
C1015      C1016   1.407       .  A
C1015      C1020   1.417       .  A
C1016      C1017   1.407       .  A
C1016      H1025   1.084       .  S
C1017      C1018   1.417       .  A
C1017      S1021   1.802       .  S
C1018      C1019   1.408       .  A
C1019      C1020   1.409       .  A
C1019      H1026   1.084       .  S
C1020      S1022   1.802       .  S
S1021      H1024   1.407       .  S
S1022      H1023   1.407       .  S
C1027      C1028   1.413       .  A
C1027      C1032   1.408       .  A
C1028      C1029   1.417       .  A
C1028      H1037   1.081       .  S
C1029      C1030   1.412       .  A
C1029      S1033   1.800       .  S
C1030      C1031   1.411       .  A
C1031      C1032   1.395       .  A
C1031      H1038   1.084       .  S
C1032      S1034   1.805       .  S
S1033      H1036   1.405       .  S
S1034      H1035   1.407       .  S
C1039      C1040   1.407       .  A
C1039      C1044   1.419       .  A
C1040      C1041   1.413       .  A
C1040      H1049   1.076       .  S
C1041      C1042   1.419       .  A
C1041      S1045   1.799       .  S
C1042      C1043   1.406       .  A
C1043      C1044   1.406       .  A
C1043      H1050   1.084       .  S
C1044      S1046   1.804       .  S
S1045      H1048   1.407       .  S
S1046      H1047   1.407       .  S
C1051      C1052   1.409       .  A
C1051      C1056   1.420       .  A
C1052      C1053   1.416       .  A
C1052      H1061   1.083       .  S
C1053      C1054   1.415       .  A
C1053      S1057   1.802   1_556  S
C1054      C1055   1.395       .  A
C1055      C1056   1.381       .  A
C1055      H1062   1.081       .  S
C1056      S1058   1.818       .  S
S1057      H1060   1.404   1_554  S
S1058      H1059   1.406       .  S
C1063      C1064   1.415       .  A
C1063      C1068   1.404       .  A
C1064      C1065   1.417       .  A
C1064      H1073   1.084       .  S
C1065      C1066   1.415       .  A
C1065      S1069   1.802       .  S
C1066      C1067   1.415       .  A
C1067      C1068   1.392       .  A
C1067      H1074   1.084       .  S
C1068      S1070   1.805       .  S
S1069      H1072   1.404       .  S
S1070      H1071   1.407       .  S
C1075      C1076   1.415       .  A
C1075      C1080   1.421       .  A
C1076      C1077   1.422       .  A
C1076      H1085   1.083       .  S
C1077      C1078   1.415       .  A
C1077      S1081   1.792       .  S
C1078      C1079   1.411       .  A
C1079      C1080   1.403       .  A
C1079      H1086   1.084       .  S
C1080      S1082   1.801       .  S
S1081      H1084   1.407       .  S
S1082      H1083   1.408       .  S
C1087      C1088   1.404       .  A
C1087      C1092   1.417       .  A
C1088      C1089   1.402       .  A
C1088      H1097   1.084       .  S
C1089      C1090   1.419       .  A
C1089      S1093   1.802       .  S
C1090      C1091   1.406       .  A
C1091      C1092   1.409       .  A
C1091      H1098   1.082       .  S
C1092      S1094   1.808       .  S
S1093      H1096   1.407       .  S
S1094      H1095   1.407       .  S
C1099      C1100   1.414       .  A
C1099      C1104   1.411       .  A
C1100      C1101   1.410       .  A
C1100      H1109   1.082       .  S
C1101      C1102   1.413       .  A
C1101      S1105   1.806       .  S
C1102      C1103   1.413       .  A
C1103      C1104   1.401       .  A
C1103      H1110   1.083       .  S
C1104      S1106   1.800       .  S
S1105      H1108   1.407       .  S
S1106      H1107   1.408       .  S
C1111      C1112   1.409       .  A
C1111      C1116   1.427       .  A
C1112      C1113   1.413       .  A
C1112      H1121   1.083       .  S
C1113      C1114   1.415       .  A
C1113      S1117   1.803       .  S
C1114      C1115   1.394       .  A
C1115      C1116   1.391       .  A
C1115      H1122   1.085       .  S
C1116      S1118   1.809       .  S
S1117      H1120   1.404       .  S
S1118      H1119   1.406       .  S
C1123      C1124   1.408       .  A
C1123      C1128   1.419       .  A
C1124      C1125   1.407       .  A
C1124      H1133   1.084       .  S
C1125      C1126   1.414       .  A
C1125      S1129   1.799       .  S
C1126      C1127   1.408       .  A
C1127      C1128   1.407       .  A
C1127      H1134   1.083       .  S
C1128      S1130   1.803       .  S
S1129      H1132   1.408       .  S
S1130      H1131   1.408       .  S
C1135      C1136   1.398       .  A
C1135      C1140   1.414       .  A
C1136      C1137   1.387       .  A
C1136      H1145   1.085       .  S
C1137      C1138   1.411       .  A
C1137      S1141   1.803       .  S
C1138      C1139   1.396       .  A
C1139      C1140   1.387       .  A
C1139      H1146   1.083       .  S
C1140      S1142   1.803       .  S
S1141      H1144   1.407       .  S
S1142      H1143   1.408       .  S
C1147      C1148   1.398       .  A
C1147      C1152   1.424       .  A
C1148      C1149   1.398       .  A
C1148      H1157   1.082       .  S
C1149      C1150   1.409       .  A
C1149      S1153   1.778       .  S
C1150      C1151   1.403       .  A
C1151      C1152   1.406       .  A
C1151      H1158   1.084       .  S
C1152      S1154   1.801   1_545  S
S1153      H1156   1.407       .  S
S1154      H1155   1.407       .  S
C1159      C1160   1.413       .  A
C1159      C1164   1.419       .  A
C1160      C1161   1.414       .  A
C1160      H1169   1.083       .  S
C1161      C1162   1.409       .  A
C1161      S1165   1.800       .  S
C1162      C1163   1.402       .  A
C1163      C1164   1.385       .  A
C1163      H1170   1.084       .  S
C1164      S1166   1.815       .  S
S1165      H1168   1.407       .  S
S1166      H1167   1.399       .  S
C1171      C1172   1.403       .  A
C1171      C1176   1.415       .  A
C1172      C1173   1.405   1_556  A
C1172      H1181   1.084       .  S
C1173      C1174   1.411       .  A
C1173      S1177   1.794       .  S
C1174      C1175   1.402       .  A
C1175      C1176   1.405   1_554  A
C1175      H1182   1.084       .  S
C1176      S1178   1.795       .  S
S1177      H1180   1.406       .  S
S1178      H1179   1.405       .  S
C1183      C1184   1.405       .  A
C1183      C1188   1.417       .  A
C1184      C1185   1.403       .  A
C1184      H1193   1.084       .  S
C1185      C1186   1.412       .  A
C1185      S1189   1.802       .  S
C1186      C1187   1.397       .  A
C1187      C1188   1.392       .  A
C1187      H1194   1.085       .  S
C1188      S1190   1.803       .  S
S1189      H1192   1.406       .  S
S1190      H1191   1.407       .  S
C1195      C1196   1.410       .  A
C1195      C1200   1.415       .  A
C1196      C1197   1.416       .  A
C1196      H1205   1.084   1_545  S
C1197      C1198   1.415       .  A
C1197      S1201   1.799       .  S
C1198      C1199   1.404       .  A
C1199      C1200   1.402       .  A
C1199      H1206   1.079       .  S
C1200      S1202   1.805       .  S
S1201      H1204   1.407       .  S
S1202      H1203   1.408       .  S
C1207      C1208   1.399       .  A
C1207      C1212   1.415       .  A
C1208      C1209   1.399       .  A
C1208      H1217   1.082       .  S
C1209      C1210   1.419       .  A
C1209      S1213   1.810       .  S
C1210      C1211   1.401       .  A
C1211      C1212   1.398       .  A
C1211      H1218   1.083       .  S
C1212      S1214   1.810       .  S
S1213      H1216   1.407       .  S
S1214      H1215   1.407       .  S
C1219      C1220   1.401       .  A
C1219      C1224   1.418       .  A
C1220      C1221   1.404       .  A
C1220      H1229   1.083       .  S
C1221      C1222   1.418       .  A
C1221      S1225   1.809       .  S
C1222      C1223   1.401       .  A
C1223      C1224   1.401       .  A
C1223      H1230   1.084       .  S
C1224      S1226   1.803       .  S
S1225      H1228   1.407       .  S
S1226      H1227   1.407       .  S
C1231      C1232   1.402       .  A
C1231      C1236   1.417       .  A
C1232      C1233   1.410       .  A
C1232      H1241   1.080       .  S
C1233      C1234   1.413       .  A
C1233      S1237   1.782       .  S
C1234      C1235   1.405       .  A
C1235      C1236   1.404       .  A
C1235      H1242   1.085       .  S
C1236      S1238   1.802       .  S
S1237      H1240   1.406       .  S
S1238      H1239   1.407       .  S
C1243      C1244   1.402       .  A
C1243      C1248   1.420       .  A
C1244      C1245   1.399       .  A
C1244      H1253   1.083       .  S
C1245      C1246   1.413       .  A
C1245      S1249   1.804       .  S
C1246      C1247   1.401       .  A
C1247      C1248   1.402       .  A
C1247      H1254   1.084       .  S
C1248      S1250   1.803       .  S
S1249      H1252   1.407       .  S
S1250      H1251   1.407       .  S
C1255      C1256   1.407       .  A
C1255      C1260   1.408       .  A
C1256      C1257   1.407       .  A
C1256      H1265   1.084   1_545  S
C1257      C1258   1.415       .  A
C1257      S1261   1.799   1_545  S
C1258      C1259   1.408       .  A
C1259      C1260   1.407       .  A
C1259      H1266   1.084       .  S
C1260      S1262   1.799       .  S
S1261      H1264   1.408       .  S
S1262      H1263   1.408       .  S
C1267      C1268   1.398       .  A
C1267      C1272   1.411       .  A
C1268      C1269   1.399       .  A
C1268      H1277   1.084       .  S
C1269      C1270   1.418       .  A
C1269      S1273   1.801       .  S
C1270      C1271   1.404       .  A
C1271      C1272   1.397       .  A
C1271      H1278   1.084       .  S
C1272      S1274   1.805       .  S
S1273      H1276   1.407       .  S
S1274      H1275   1.403       .  S
C1279      C1280   1.414       .  A
C1279      C1284   1.414       .  A
C1280      C1281   1.410       .  A
C1280      H1289   1.083       .  S
C1281      C1282   1.405       .  A
C1281      S1285   1.800       .  S
C1282      C1283   1.406       .  A
C1283      C1284   1.410       .  A
C1283      H1290   1.083       .  S
C1284      S1286   1.803       .  S
S1285      H1288   1.408       .  S
S1286      H1287   1.407       .  S
C1291      C1292   1.410   1_554  A
C1291      C1296   1.413       .  A
C1292      C1293   1.405       .  A
C1292      H1301   1.084       .  S
C1293      C1294   1.415       .  A
C1293      S1297   1.802       .  S
C1294      C1295   1.414       .  A
C1295      C1296   1.413   1_556  A
C1295      H1302   1.083       .  S
C1296      S1298   1.798       .  S
S1297      H1300   1.407       .  S
S1298      H1299   1.406       .  S
C1303      C1304   1.402   1_556  A
C1303      C1308   1.410   1_556  A
C1304      C1305   1.399       .  A
C1304      H1313   1.086       .  S
C1305      C1306   1.419       .  A
C1305      S1309   1.805       .  S
C1306      C1307   1.410       .  A
C1307      C1308   1.411       .  A
C1307      H1314   1.083       .  S
C1308      S1310   1.798   1_554  S
S1309      H1312   1.408       .  S
S1310      H1311   1.407       .  S
C1315      C1316   1.406       .  A
C1315      C1320   1.406       .  A
C1316      C1317   1.392       .  A
C1316      H1325   1.084       .  S
C1317      C1318   1.405       .  A
C1317      S1321   1.804       .  S
C1318      C1319   1.405       .  A
C1319      C1320   1.393       .  A
C1319      H1326   1.084       .  S
C1320      S1322   1.804       .  S
S1321      H1324   1.407       .  S
S1322      H1323   1.407       .  S
C1327      C1328   1.395       .  A
C1327      C1332   1.414       .  A
C1328      C1329   1.390       .  A
C1328      H1337   1.084       .  S
C1329      C1330   1.414       .  A
C1329      S1333   1.802       .  S
C1330      C1331   1.394       .  A
C1331      C1332   1.388       .  A
C1331      H1338   1.085       .  S
C1332      S1334   1.802       .  S
S1333      H1336   1.406       .  S
S1334      H1335   1.406       .  S
C1339      C1340   1.408       .  A
C1339      C1344   1.414       .  A
C1340      C1341   1.399   1_556  A
C1340      H1349   1.084   1_556  S
C1341      C1342   1.408   1_554  A
C1341      S1345   1.804       .  S
C1342      C1343   1.403       .  A
C1343      C1344   1.396       .  A
C1343      H1350   1.084       .  S
C1344      S1346   1.802       .  S
S1345      H1348   1.406   1_655  S
S1346      H1347   1.407       .  S
C1351      C1352   1.405       .  A
C1351      C1356   1.413       .  A
C1352      C1353   1.400       .  A
C1352      H1361   1.084       .  S
C1353      C1354   1.414       .  A
C1353      S1357   1.804       .  S
C1354      C1355   1.406       .  A
C1355      C1356   1.407       .  A
C1355      H1362   1.084       .  S
C1356      S1358   1.802       .  S
S1357      H1360   1.407       .  S
S1358      H1359   1.406       .  S
C1363      C1364   1.403       .  A
C1363      C1368   1.421       .  A
C1364      C1365   1.410       .  A
C1364      H1373   1.084       .  S
C1365      C1366   1.427       .  A
C1365      S1369   1.801       .  S
C1366      C1367   1.411       .  A
C1367      C1368   1.416       .  A
C1367      H1374   1.083       .  S
C1368      S1370   1.801       .  S
S1369      H1372   1.408       .  S
S1370      H1371   1.407       .  S
C1375      C1376   1.394       .  A
C1375      C1380   1.415       .  A
C1376      C1377   1.393       .  A
C1376      H1385   1.084       .  S
C1377      C1378   1.421       .  A
C1377      S1381   1.803       .  S
C1378      C1379   1.401       .  A
C1379      C1380   1.396       .  A
C1379      H1386   1.084       .  S
C1380      S1382   1.805       .  S
S1381      H1384   1.406       .  S
S1382      H1383   1.408       .  S
C1387      C1388   1.418       .  A
C1387      C1392   1.417       .  A
C1388      C1389   1.425       .  A
C1388      H1397   1.083       .  S
C1389      C1390   1.420       .  A
C1389      S1393   1.791       .  S
C1390      C1391   1.417       .  A
C1391      C1392   1.403       .  A
C1391      H1398   1.083       .  S
C1392      S1394   1.803       .  S
S1393      H1396   1.406       .  S
S1394      H1395   1.407       .  S
C1399      C1400   1.402       .  A
C1399      C1404   1.415       .  A
C1400      C1401   1.394       .  A
C1400      H1409   1.084       .  S
C1401      C1402   1.416       .  A
C1401      S1405   1.804       .  S
C1402      C1403   1.405       .  A
C1403      C1404   1.403       .  A
C1403      H1410   1.084       .  S
C1404      S1406   1.803       .  S
S1405      H1408   1.408       .  S
S1406      H1407   1.407       .  S
C1411      C1412   1.402       .  A
C1411      C1416   1.418       .  A
C1412      C1413   1.398       .  A
C1412      H1421   1.081       .  S
C1413      C1414   1.416       .  A
C1413      S1417   1.805       .  S
C1414      C1415   1.408       .  A
C1415      C1416   1.415       .  A
C1415      H1422   1.083       .  S
C1416      S1418   1.802       .  S
S1417      H1420   1.407       .  S
S1418      H1419   1.407       .  S
C1423      C1424   1.408       .  A
C1423      C1428   1.425       .  A
C1424      C1425   1.406       .  A
C1424      H1433   1.083       .  S
C1425      C1426   1.415       .  A
C1425      S1429   1.800       .  S
C1426      C1427   1.400       .  A
C1427      C1428   1.399       .  A
C1427      H1434   1.085       .  S
C1428      S1430   1.801       .  S
S1429      H1432   1.407       .  S
S1430      H1431   1.401       .  S
C1435      C1436   1.398       .  A
C1435      C1440   1.415       .  A
C1436      C1437   1.394       .  A
C1436      H1445   1.082       .  S
C1437      C1438   1.411       .  A
C1437      S1441   1.804       .  S
C1438      C1439   1.398       .  A
C1439      C1440   1.398       .  A
C1439      H1446   1.084       .  S
C1440      S1442   1.804       .  S
S1441      H1444   1.404       .  S
S1442      H1443   1.407       .  S
C1447      C1448   1.427       .  A
C1447      C1452   1.404       .  A
C1448      C1449   1.399       .  A
C1448      H1457   1.082       .  S
C1449      C1450   1.397       .  A
C1449      S1453   1.804       .  S
C1450      C1451   1.422       .  A
C1451      C1452   1.407       .  A
C1451      H1458   1.083       .  S
C1452      S1454   1.801       .  S
S1453      H1456   1.405       .  S
S1454      H1455   1.406       .  S
C1459      C1460   1.394       .  A
C1459      C1464   1.409       .  A
C1460      C1461   1.380       .  A
C1460      H1469   1.084       .  S
C1461      C1462   1.419       .  A
C1461      S1465   1.804       .  S
C1462      C1463   1.401       .  A
C1463      C1464   1.391       .  A
C1463      H1470   1.082       .  S
C1464      S1466   1.809       .  S
S1465      H1468   1.408       .  S
S1466      H1467   1.407       .  S
C1471      C1472   1.405       .  A
C1471      C1476   1.410       .  A
C1472      C1473   1.389       .  A
C1472      H1481   1.084       .  S
C1473      C1474   1.407       .  A
C1473      S1477   1.802       .  S
C1474      C1475   1.403       .  A
C1475      C1476   1.388       .  A
C1475      H1482   1.083       .  S
C1476      S1478   1.811       .  S
S1477      H1480   1.408       .  S
S1478      H1479   1.407       .  S
C1483      C1484   1.401       .  A
C1483      C1488   1.413       .  A
C1484      C1485   1.395       .  A
C1484      H1493   1.084       .  S
C1485      C1486   1.413       .  A
C1485      S1489   1.803       .  S
C1486      C1487   1.401       .  A
C1487      C1488   1.397       .  A
C1487      H1494   1.084       .  S
C1488      S1490   1.804       .  S
S1489      H1492   1.407       .  S
S1490      H1491   1.407       .  S
C1495      C1496   1.411       .  A
C1495      C1500   1.407       .  A
C1496      C1497   1.404       .  A
C1496      H1505   1.085       .  S
C1497      C1498   1.415       .  A
C1497      S1501   1.800       .  S
C1498      C1499   1.413       .  A
C1499      C1500   1.407       .  A
C1499      H1506   1.084       .  S
C1500      S1502   1.789       .  S
S1501      H1504   1.408       .  S
S1502      H1503   1.404       .  S
C1507      C1508   1.403       .  A
C1507      C1512   1.420       .  A
C1508      C1509   1.401       .  A
C1508      H1517   1.084       .  S
C1509      C1510   1.412       .  A
C1509      S1513   1.803       .  S
C1510      C1511   1.402       .  A
C1511      C1512   1.405       .  A
C1511      H1518   1.084       .  S
C1512      S1514   1.801       .  S
S1513      H1516   1.407       .  S
S1514      H1515   1.406       .  S
C1519      C1520   1.404       .  A
C1519      C1524   1.408       .  A
C1520      C1521   1.397       .  A
C1520      H1529   1.084       .  S
C1521      C1522   1.409       .  A
C1521      S1525   1.803       .  S
C1522      C1523   1.406       .  A
C1523      C1524   1.398       .  A
C1523      H1530   1.084       .  S
C1524      S1526   1.804       .  S
S1525      H1528   1.406       .  S
S1526      H1527   1.406       .  S
C1531      C1532   1.409       .  A
C1531      C1536   1.414       .  A
C1532      C1533   1.402       .  A
C1532      H1541   1.084       .  S
C1533      C1534   1.415       .  A
C1533      S1537   1.799       .  S
C1534      C1535   1.411       .  A
C1535      C1536   1.406       .  A
C1535      H1542   1.084       .  S
C1536      S1538   1.799       .  S
S1537      H1540   1.406       .  S
S1538      H1539   1.407       .  S
C1543      C1544   1.404       .  A
C1543      C1548   1.411       .  A
C1544      C1545   1.406       .  A
C1544      H1553   1.085       .  S
C1545      C1546   1.423       .  A
C1545      S1549   1.802       .  S
C1546      C1547   1.409       .  A
C1547      C1548   1.408       .  A
C1547      H1554   1.083       .  S
C1548      S1550   1.801       .  S
S1549      H1552   1.408       .  S
S1550      H1551   1.407       .  S
C1555      C1556   1.399       .  A
C1555      C1560   1.419       .  A
C1556      C1557   1.402       .  A
C1556      H1565   1.084       .  S
C1557      C1558   1.422       .  A
C1557      S1561   1.800       .  S
C1558      C1559   1.402       .  A
C1559      C1560   1.405       .  A
C1559      H1566   1.084       .  S
C1560      S1562   1.801       .  S
S1561      H1564   1.408       .  S
S1562      H1563   1.407       .  S
C1567      C1568   1.406       .  A
C1567      C1572   1.425       .  A
C1568      C1569   1.398       .  A
C1568      H1577   1.083       .  S
C1569      C1570   1.409       .  A
C1569      S1573   1.804       .  S
C1570      C1571   1.392       .  A
C1571      C1572   1.392       .  A
C1571      H1578   1.085       .  S
C1572      S1574   1.803       .  S
S1573      H1576   1.406       .  S
S1574      H1575   1.402       .  S
C1579      C1580   1.400       .  A
C1579      C1584   1.414       .  A
C1580      C1581   1.397       .  A
C1580      H1589   1.083       .  S
C1581      C1582   1.414       .  A
C1581      S1585   1.808       .  S
C1582      C1583   1.400       .  A
C1583      C1584   1.389       .  A
C1583      H1590   1.085       .  S
C1584      S1586   1.801       .  S
S1585      H1588   1.407       .  S
S1586      H1587   1.408       .  S
C1591      C1592   1.402       .  A
C1591      C1596   1.402       .  A
C1592      C1593   1.400       .  A
C1592      H1601   1.084       .  S
C1593      C1594   1.409       .  A
C1593      S1597   1.802   1_455  S
C1594      C1595   1.402       .  A
C1595      C1596   1.375       .  A
C1595      H1602   1.084       .  S
C1596      S1598   1.808       .  S
S1597      H1600   1.406       .  S
S1598      H1599   1.404       .  S
C1603      C1604   1.402       .  A
C1603      C1608   1.415       .  A
C1604      C1605   1.408       .  A
C1604      H1613   1.084       .  S
C1605      C1606   1.422       .  A
C1605      S1609   1.799       .  S
C1606      C1607   1.407       .  A
C1607      C1608   1.407       .  A
C1607      H1614   1.083       .  S
C1608      S1610   1.802       .  S
S1609      H1612   1.408       .  S
S1610      H1611   1.402       .  S
C1615      C1616   1.406       .  A
C1615      C1620   1.414       .  A
C1616      C1617   1.396       .  A
C1616      H1625   1.084       .  S
C1617      C1618   1.406       .  A
C1617      S1621   1.803       .  S
C1618      C1619   1.397       .  A
C1619      C1620   1.390       .  A
C1619      H1626   1.085       .  S
C1620      S1622   1.804       .  S
S1621      H1624   1.407       .  S
S1622      H1623   1.408       .  S
C1627      C1628   1.406       .  A
C1627      C1632   1.414       .  A
C1628      C1629   1.389       .  A
C1628      H1637   1.084       .  S
C1629      C1630   1.402       .  A
C1629      S1633   1.800       .  S
C1630      C1631   1.400       .  A
C1631      C1632   1.396       .  A
C1631      H1638   1.084       .  S
C1632      S1634   1.800       .  S
S1633      H1636   1.406       .  S
S1634      H1635   1.408       .  S
C1639      C1640   1.387       .  A
C1639      C1644   1.417       .  A
C1640      C1641   1.390       .  A
C1640      H1649   1.084       .  S
C1641      C1642   1.427       .  A
C1641      S1645   1.807       .  S
C1642      C1643   1.403       .  A
C1643      C1644   1.410       .  A
C1643      H1650   1.083       .  S
C1644      S1646   1.801       .  S
S1645      H1648   1.407       .  S
S1646      H1647   1.404       .  S
C1651      C1652   1.406       .  A
C1651      C1656   1.419       .  A
C1652      C1653   1.389       .  A
C1652      H1661   1.083       .  S
C1653      C1654   1.408       .  A
C1653      S1657   1.808       .  S
C1654      C1655   1.397       .  A
C1655      C1656   1.400       .  A
C1655      H1662   1.084       .  S
C1656      S1658   1.798       .  S
S1657      H1660   1.406       .  S
S1658      H1659   1.408       .  S
C1663      C1664   1.406       .  A
C1663      C1668   1.417       .  A
C1664      C1665   1.408       .  A
C1664      H1673   1.084       .  S
C1665      C1666   1.417       .  A
C1665      S1669   1.801       .  S
C1666      C1667   1.408       .  A
C1667      C1668   1.408       .  A
C1667      H1674   1.084       .  S
C1668      S1670   1.803       .  S
S1669      H1672   1.407       .  S
S1670      H1671   1.407       .  S
