geometry optimzed in LAMMPS
_audit_creation_date              2020-11-30 
_audit_creation_method            'lammps2cif' 
_symmetry_space_group_name_H-M    'P1' 
_symmetry_Int_Tables_number       1 
_symmetry_cell_setting            triclinic 
loop_ 
_symmetry_equiv_pos_as_xyz 
  x,y,z 
_cell_length_a                    35.793038436018136 
_cell_length_b                    37.797394851836714 
_cell_length_c                    30.936398602555972 
_cell_angle_alpha                 89.92577054091521 
_cell_angle_beta                  89.4214712535414 
_cell_angle_gamma                 117.91351591766204 
loop_ 
_atom_site_label 
_atom_site_type_symbol 
_atom_site_fract_x 
_atom_site_fract_y 
_atom_site_fract_z 
_atom_site_charge 
N1          N  0.87090810  0.65402676  0.41897650    -0.07610
N2          N  0.90762640  0.68058686  0.43194366    -0.59730
N3          N  0.80255625  0.56143112  0.45816314    -0.07290
N4          N  0.79609643  0.55060480  0.49925756    -0.61860
N5          N  0.84014679  0.56770936  0.44507715    -0.06890
N6          N  0.86043959  0.56269192  0.47882689    -0.59710
N7          N  0.84040698  0.65083509  0.44531144    -0.06570
N8          N  0.85764522  0.67427308  0.47940446    -0.62210
C9          C  0.89992399  0.69352591  0.46928161     0.94560
C10         C  0.83200473  0.55114110  0.51260156     0.94340
N11         N  0.70208369  0.54020039  0.37350631    -0.07800
N12         N  0.67257227  0.50322571  0.36771653    -0.60310
N13         N  0.74665293  0.63406876  0.41288777    -0.05920
N14         N  0.73155117  0.64966942  0.44184599    -0.61560
N15         N  0.72617580  0.62832226  0.37628698    -0.07830
N16         N  0.69660987  0.63995249  0.38038147    -0.60580
N17         N  0.71820809  0.54434862  0.41273738    -0.05560
N18         N  0.69983089  0.51004449  0.43407406    -0.61650
Mn19       Mn  0.77633490  0.59809443  0.43263044     1.18440
C20         C  0.67189788  0.48503343  0.40543944     0.96640
C21         C  0.70058874  0.65354046  0.42146371     0.97310
N22         N  0.85760773  0.55526244  0.34247883    -0.07850
N23         N  0.85920503  0.52292064  0.35504223    -0.64160
N24         N  0.88336235  0.64200874  0.29183389    -0.06650
N25         N  0.91179011  0.66109431  0.26143078    -0.64830
N26         N  0.90162754  0.64475735  0.32907570    -0.07360
N27         N  0.94315192  0.66608843  0.32465414    -0.64420
N28         N  0.84017787  0.55033646  0.30399094    -0.06250
N29         N  0.82893644  0.51361069  0.29023176    -0.65110
Mn30       Mn  0.86786225  0.60506565  0.38365450     1.10660
C31         C  0.84161075  0.49724786  0.32231013     0.97870
C32         C  0.94884219  0.67615769  0.28225654     0.97940
N33         N  0.76337584  0.63679477  0.28126903    -0.07360
N34         N  0.74910998  0.65931808  0.26308617    -0.62740
N35         N  0.76066391  0.54681010  0.25713871    -0.06680
N36         N  0.76049618  0.53684656  0.21617110    -0.59470
N37         N  0.72676039  0.55049019  0.26648554    -0.07990
N38         N  0.70582127  0.54711614  0.22969408    -0.62300
N39         N  0.79743297  0.63983269  0.26120846    -0.06980
N40         N  0.80713968  0.66561496  0.22855472    -0.59490
Mn41       Mn  0.72828125  0.58829784  0.32475625     1.20190
Mn42       Mn  0.82090395  0.59487636  0.27828830     1.10090
Cl43       Cl  0.79801789  0.59643231  0.35484883    -0.87460
C44         C  0.77665622  0.67745863  0.23059090     0.94870
C45         C  0.72720901  0.53828600  0.19815141     0.94670
N46         N  0.74575740  0.66696666  0.83473025    -0.07610
N47         N  0.73422761  0.69566964  0.83457441    -0.59730
N48         N  0.72636189  0.57285355  0.80662328    -0.07290
N49         N  0.70249882  0.53621737  0.79158769    -0.61860
N50         N  0.71315900  0.57589317  0.84587941    -0.06890
N51         N  0.68057633  0.54209179  0.85782991    -0.59710
N52         N  0.75922989  0.66382109  0.79604041    -0.06570
N53         N  0.75752725  0.68968909  0.76902053    -0.62210
C54         C  0.74199767  0.70925558  0.79304637     0.94560
C55         C  0.67422642  0.51737166  0.82424228     0.94340
N56         N  0.85125984  0.59642427  0.76355235    -0.07800
N57         N  0.86827991  0.58574755  0.73051480    -0.60310
N58         N  0.84474405  0.67834172  0.75686665    -0.05920
N59         N  0.85079521  0.70781973  0.72981994    -0.61560
N60         N  0.88113308  0.68483311  0.77362440    -0.07830
N61         N  0.91231835  0.71819931  0.75864445    -0.60580
N62         N  0.81207805  0.58757528  0.75395338    -0.05560
N63         N  0.80203264  0.57054004  0.71557822    -0.61650
Mn64       Mn  0.78446315  0.62465953  0.77796361     1.18440
C65         C  0.83667408  0.56866480  0.70089720     0.96640
C66         C  0.89311572  0.73233064  0.73157793     0.97310
N67         N  0.74815510  0.58990867  0.94426497    -0.07850
N68         N  0.72123174  0.57394116  0.97768370    -0.64160
N69         N  0.82221278  0.68440557  0.94309684    -0.06650
N70         N  0.84044107  0.71826452  0.96519133    -0.64830
N71         N  0.78621986  0.67974605  0.92712416    -0.07360
N72         N  0.77917074  0.70983588  0.93768093    -0.64420
N73         N  0.78489245  0.59239558  0.95428804    -0.06250
N74         N  0.78319099  0.57738203  0.99315418    -0.65110
Mn75       Mn  0.74681425  0.62788348  0.88798597     1.10660
C76         C  0.74351078  0.56548755  0.00808238     0.97870
C77         C  0.81294775  0.73357453  0.96158050     0.97940
N78         N  0.92179908  0.68884592  0.86727787    -0.07360
N79         N  0.96212695  0.71715538  0.86768854    -0.62740
N80         N  0.86282656  0.59371786  0.90331450    -0.06680
N81         N  0.84802922  0.55678485  0.91849626    -0.59470
N82         N  0.87866577  0.59600236  0.86392757    -0.07990
N83         N  0.87498010  0.56113937  0.85227342    -0.62300
N84         N  0.90477005  0.68664645  0.90565165    -0.06980
N85         N  0.93215592  0.71283872  0.93230437    -0.59490
Mn86       Mn  0.88493605  0.64188993  0.81723443     1.20190
Mn87       Mn  0.84441706  0.63920368  0.92705807     1.10090
Cl88       Cl  0.81509817  0.63308973  0.85251162    -0.87460
C89         C  0.96777057  0.73212069  0.90867035     0.94870
C90         C  0.85588205  0.53686528  0.88629098     0.94670
N91         N  0.16780924  0.88023741  0.03665096    -0.07610
N92         N  0.14437617  0.86842292  0.00154787    -0.59730
N93         N  0.21803556  0.93185372  0.12601542    -0.07290
N94         N  0.23107351  0.95750527  0.15823333    -0.61860
N95         N  0.24204688  0.94753236  0.09166838    -0.06890
N96         N  0.27213201  0.98429474  0.10020541    -0.59710
N97         N  0.14504566  0.86238722  0.07110687    -0.06570
N98         N  0.10568430  0.83743400  0.05975137    -0.62210
C99         C  0.10547230  0.84208047  0.01613661     0.94560
C100        C  0.26433943  0.99049022  0.14188071     0.94340
N101        N  0.23195774  0.84870669  0.19711926    -0.07800
N102        N  0.24467805  0.85030375  0.23704295    -0.60310
N103        N  0.14097112  0.80275547  0.14418927    -0.05920
N104        N  0.10205492  0.78560229  0.15962138    -0.61560
N105        N  0.15935281  0.78024235  0.15171981    -0.07830
N106        N  0.13285209  0.74728155  0.17264896    -0.60580
N107        N  0.21116630  0.86938763  0.19304080    -0.05560
N108        N  0.20901174  0.88513160  0.23045397    -0.61650
Mn109      Mn  0.17758497  0.86687620  0.13339533     1.18440
C110        C  0.23007813  0.87284548  0.25761601     0.96640
C111        C  0.09712334  0.75090236  0.17665639     0.97310
N112        N  0.30562542  0.93201263  0.03612251    -0.07850
N113        N  0.33283259  0.96987863  0.02890240    -0.64160
N114        N  0.24818255  0.83942510  0.99144004    -0.06650
N115        N  0.23591396  0.81449252  0.95833616    -0.64830
N116        N  0.23178180  0.86410660  0.98875995    -0.07360
N117        N  0.20750784  0.85598579  0.95494939    -0.64420
N118        N  0.32474621  0.90957964  0.03744086    -0.06250
N119        N  0.36605616  0.93255908  0.03069376    -0.65110
Mn120      Mn  0.23728280  0.90739093  0.03762405     1.10660
C121        C  0.37056143  0.97029304  0.02586173     0.97870
C122        C  0.20957516  0.82478758  0.93675679     0.97940
N123        N  0.22629190  0.76350447  0.09909500    -0.07360
N124        N  0.21231213  0.72494824  0.10621578    -0.62740
N125        N  0.31932742  0.84659909  0.10829532    -0.06680
N126        N  0.35992837  0.85853677  0.11280770    -0.59470
N127        N  0.29887190  0.83253126  0.14509724    -0.07990
N128        N  0.32535074  0.83390406  0.17538080    -0.62300
N129        N  0.24833282  0.77498949  0.06272248    -0.06980
N130        N  0.25006363  0.74351372  0.04511269    -0.59490
Mn131      Mn  0.22910820  0.80584816  0.14859250     1.20190
Mn132      Mn  0.28622808  0.84229606  0.04832901     1.10090
Cl133      Cl  0.23254777  0.85527839  0.09190594    -0.87460
C134        C  0.22675309  0.71210066  0.07248419     0.94870
C135        C  0.36337736  0.85103006  0.15479722     0.94670
N136        N  0.11832969  0.77520407  0.54878290    -0.07610
N137        N  0.08780798  0.73751172  0.54685398    -0.59730
N138        N  0.17508198  0.86501694  0.50105805    -0.07290
N139        N  0.18130939  0.88320004  0.46308989    -0.61860
N140        N  0.19582852  0.84410889  0.50250669    -0.06890
N141        N  0.21685414  0.84804895  0.46637816    -0.59710
N142        N  0.10097864  0.79889569  0.55242245    -0.06570
N143        N  0.06002099  0.77875084  0.55629588    -0.62210
C144        C  0.05146233  0.74057150  0.55255290     0.94560
C145        C  0.20784476  0.87253556  0.44196312     0.94340
N146        N  0.18011086  0.94119028  0.60037359    -0.07800
N147        N  0.20022056  0.98075130  0.59663148    -0.60310
N148        N  0.08950050  0.85770806  0.60742392    -0.05920
N149        N  0.04786271  0.84102821  0.60761599    -0.61560
N150        N  0.10419922  0.87062933  0.64593056    -0.07830
N151        N  0.07292844  0.86308962  0.67345327    -0.60580
N152        N  0.16398687  0.92527533  0.56303787    -0.05560
N153        N  0.17112189  0.95275613  0.53366220    -0.61650
Mn154      Mn  0.13218510  0.86193389  0.55448069     1.18440
C155        C  0.19311502  0.98725002  0.55494632     0.96640
C156        C  0.03780105  0.84495096  0.64896957     0.97310
N157        N  0.26017935  0.83285030  0.56446943    -0.07850
N158        N  0.29114490  0.83045959  0.54246978    -0.64160
N159        N  0.20137478  0.77875010  0.64444153    -0.06650
N160        N  0.20805962  0.75212392  0.66612969    -0.64830
N161        N  0.18324823  0.76371088  0.60753466    -0.07360
N162        N  0.17684399  0.72670421  0.60354489    -0.64420
N163        N  0.27460202  0.85002287  0.60199509    -0.06250
N164        N  0.31473875  0.85954469  0.60609634    -0.65110
Mn165      Mn  0.18909703  0.80294632  0.55420670     1.10660
C166        C  0.32539636  0.84776966  0.56885279     0.97870
C167        C  0.19160286  0.71942917  0.64059444     0.97940
N168        N  0.16581376  0.85693770  0.70840168    -0.07360
N169        N  0.14854549  0.85161142  0.74753306    -0.62740
N170        N  0.26152912  0.90903895  0.66803916    -0.06680
N171        N  0.29705082  0.93191798  0.68870884    -0.59470
N172        N  0.23945336  0.92846105  0.66368924    -0.07990
N173        N  0.25976040  0.96462659  0.67901335    -0.62300
N174        N  0.18486432  0.83463682  0.70441294    -0.06980
N175        N  0.17920427  0.81261251  0.73895499    -0.59490
Mn176      Mn  0.17237083  0.90013290  0.65576737     1.20190
Mn177      Mn  0.23141489  0.84365593  0.65531745     1.10090
Cl178      Cl  0.18215851  0.85277743  0.60453664    -0.87460
C179        C  0.15686210  0.82336292  0.76607630     0.94870
C180        C  0.29567584  0.96697901  0.69445950     0.94670
N181        N  0.23662900  0.51248495  0.12265814    -0.07610
N182        N  0.25087224  0.55103907  0.11383148    -0.59730
N183        N  0.18434882  0.43781892  0.19445759    -0.07290
N184        N  0.16386732  0.42815451  0.23226071    -0.61860
N185        N  0.22518788  0.45760614  0.20075468    -0.06890
N186        N  0.23352404  0.46242314  0.24213257    -0.59710
N187        N  0.19581117  0.49210627  0.11396139    -0.06570
N188        N  0.18179892  0.51691757  0.09984730    -0.62210
C189        C  0.21651456  0.55366312  0.09962574     0.94560
C190        C  0.19542730  0.44353224  0.26171783     0.94340
N191        N  0.14150787  0.33710921  0.11542801    -0.07800
N192        N  0.11863146  0.29936505  0.12855714    -0.60310
N193        N  0.13345388  0.40730146  0.06065424    -0.05920
N194        N  0.09417839  0.39620164  0.04740822    -0.61560
N195        N  0.15031961  0.39062548  0.03527825    -0.07830
N196        N  0.12534736  0.37144875  0.00340992    -0.60580
N197        N  0.13262948  0.36081467  0.13989363    -0.05560
N198        N  0.10431400  0.34018925  0.16988049    -0.61650
Mn199      Mn  0.16049269  0.42524661  0.12727061     1.18440
C200        C  0.09597300  0.30201048  0.16293053     0.96640
C201        C  0.09006652  0.37388927  0.01132468     0.97310
N202        N  0.30087935  0.44273840  0.17275643    -0.07850
N203        N  0.29361349  0.42354991  0.21056871    -0.64160
N204        N  0.33211678  0.48968503  0.07284856    -0.06650
N205        N  0.36735289  0.51447128  0.05162025    -0.64830
N206        N  0.32152557  0.51005067  0.10020529    -0.07360
N207        N  0.34864127  0.54858309  0.09801583    -0.64420
N208        N  0.31325777  0.42426864  0.14416584    -0.06250
N209        N  0.31528861  0.39366530  0.16227099    -0.65110
Mn210      Mn  0.27218061  0.48184647  0.14981330     1.10660
C211        C  0.30291488  0.39292981  0.20356755     0.97870
C212        C  0.37695509  0.55141343  0.06728823     0.97940
N213        N  0.23205798  0.39372787  0.00513224    -0.07360
N214        N  0.22240903  0.39468312  0.96442183    -0.62740
N215        N  0.26552810  0.35560020  0.07675211    -0.06680
N216        N  0.28241643  0.33248693  0.06462324    -0.59470
N217        N  0.22404207  0.33474824  0.07614163    -0.07990
N218        N  0.21227669  0.29752971  0.06434784    -0.62300
N219        N  0.27286467  0.41666034  0.01088937    -0.06980
N220        N  0.29207714  0.43308426  0.97406046    -0.59490
Mn221      Mn  0.18690441  0.36374749  0.05874245     1.20190
Mn222      Mn  0.29775780  0.42256988  0.07573067     1.10090
Cl223      Cl  0.22932290  0.42358360  0.10270479    -0.87460
C224        C  0.25999324  0.41884198  0.94559756     0.94870
C225        C  0.24870661  0.29615284  0.05765900     0.94670
N226        N  0.14460493  0.42845620  0.67051655    -0.07610
N227        N  0.11646991  0.41600020  0.70222556    -0.59730
N228        N  0.13848898  0.40045697  0.56971379    -0.07290
N229        N  0.10957416  0.38274496  0.54072513    -0.61860
N230        N  0.14154339  0.37458897  0.59616397    -0.06890
N231        N  0.11237895  0.33777837  0.58583860    -0.59710
N232        N  0.13756225  0.45157347  0.64357342    -0.06570
N233        N  0.10343345  0.45423551  0.65624583    -0.62210
C234        C  0.09101308  0.43227131  0.69331414     0.94560
C235        C  0.09359761  0.34398702  0.55040379     0.94340
N236        N  0.23365406  0.49056823  0.50402095    -0.07800
N237        N  0.24104454  0.48999102  0.46228433    -0.60310
N238        N  0.20081658  0.52799997  0.58718992    -0.05920
N239        N  0.18628223  0.55133846  0.60361323    -0.61560
N240        N  0.24135432  0.54862520  0.57765296    -0.07830
N241        N  0.25535041  0.58656877  0.58787019    -0.60580
N242        N  0.19283033  0.47164238  0.51211422    -0.05560
N243        N  0.17152177  0.45741038  0.47608534    -0.61650
Mn244      Mn  0.16699529  0.46361593  0.57815428     1.18440
C245        C  0.20198988  0.46941957  0.44516809     0.96640
C246        C  0.22058286  0.58778191  0.60363889     0.97310
N247        N  0.22640852  0.37303347  0.64140506    -0.07850
N248        N  0.22407255  0.34137837  0.66246628    -0.64160
N249        N  0.26768386  0.45302267  0.70035368    -0.06650
N250        N  0.28768540  0.46484525  0.73726887    -0.64830
N251        N  0.22678483  0.43105039  0.70710543    -0.07360
N252        N  0.21794768  0.42796343  0.74878418    -0.64420
N253        N  0.26608525  0.39618450  0.62966825    -0.06250
N254        N  0.28975472  0.37937665  0.63920317    -0.65110
Mn255      Mn  0.18407702  0.40041276  0.65379776     1.10660
C256        C  0.26406759  0.34600711  0.66080213     0.97870
C257        C  0.25615797  0.44958678  0.76695048     0.97940
N258        N  0.32070677  0.54700463  0.61080362    -0.07360
N259        N  0.34157345  0.58538713  0.61994190    -0.62740
N260        N  0.32155897  0.46608533  0.57141840    -0.06680
N261        N  0.34128517  0.44638865  0.55788617    -0.59470
N262        N  0.31504277  0.48544390  0.53957297    -0.07990
N263        N  0.33074378  0.47888300  0.50296652    -0.62300
N264        N  0.32622834  0.52569338  0.64107505    -0.06980
N265        N  0.35176227  0.54912954  0.67115201    -0.59490
Mn266      Mn  0.27875857  0.51894028  0.55619236     1.20190
Mn267      Mn  0.29583277  0.46066219  0.63586453     1.10090
Cl268      Cl  0.23125901  0.46065228  0.60587998    -0.87460
C269        C  0.36084304  0.58639914  0.65765743     0.94870
C270        C  0.34724449  0.45431877  0.51531588     0.94670
N271        N  0.38264921  0.28918294  0.41266008    -0.07610
N272        N  0.37552259  0.31061500  0.44218780    -0.59730
N273        N  0.34716194  0.26169988  0.31243718    -0.07290
N274        N  0.33097577  0.27785869  0.28618097    -0.61860
N275        N  0.32033920  0.24173017  0.34398501    -0.06890
N276        N  0.28551079  0.24575039  0.33993752    -0.59710
N277        N  0.40659438  0.31254561  0.38125601    -0.06570
N278        N  0.41566028  0.35018976  0.38859978    -0.62210
C279        C  0.39685482  0.34866593  0.42714539     0.94560
C280        C  0.29267614  0.26775389  0.30298993     0.94340
N281        N  0.44120779  0.24256819  0.25404643    -0.07800
N282        N  0.44554207  0.23486055  0.21343803    -0.60310
N283        N  0.48156083  0.31106294  0.33027516    -0.05920
N284        N  0.50463788  0.34477296  0.35020426    -0.61560
N285        N  0.50087505  0.28879935  0.32880890    -0.07830
N286        N  0.53771479  0.30725424  0.34849409    -0.60580
N287        N  0.42231722  0.26496519  0.25700356    -0.05560
N288        N  0.41378433  0.27359493  0.21816487    -0.61650
Mn289      Mn  0.41469721  0.28788358  0.31937926     1.18440
C290        C  0.42839140  0.25438027  0.19151626     0.96640
C291        C  0.53921117  0.34206293  0.36185790     0.97310
N292        N  0.30790325  0.15866345  0.39402300    -0.07850
N293        N  0.27288663  0.13594544  0.41639592    -0.64160
N294        N  0.39136877  0.18506004  0.45268421    -0.06650
N295        N  0.40096185  0.17542874  0.49049283    -0.64830
N296        N  0.37333221  0.20830107  0.45792671    -0.07360
N297        N  0.36991805  0.21443001  0.49949930    -0.64420
N298        N  0.32694691  0.13716075  0.38380902    -0.06250
N299        N  0.30396996  0.10000397  0.39644342    -0.65110
Mn300      Mn  0.34520850  0.22424201  0.40254644     1.10660
C301        C  0.27101753  0.09926357  0.41788649     0.97870
C302        C  0.38784087  0.19425319  0.51924145     0.97940
N303        N  0.48918544  0.20768722  0.36576233    -0.07360
N304        N  0.52859074  0.21625820  0.37383221    -0.62740
N305        N  0.39724660  0.13781565  0.32337604    -0.06680
N306        N  0.36898968  0.10417825  0.30577484    -0.59470
N307        N  0.42349415  0.16162046  0.29360827    -0.07990
N308        N  0.41328116  0.14451700  0.25508537    -0.62300
N309        N  0.46345343  0.18295005  0.39498656    -0.06980
N310        N  0.48475202  0.17353047  0.42352289    -0.59490
Mn311      Mn  0.46517079  0.22538407  0.30968614     1.20190
Mn312      Mn  0.39487427  0.16023516  0.38890926     1.10090
Cl313      Cl  0.40478739  0.22440345  0.35528019    -0.87460
C314        C  0.52549904  0.19515090  0.41018521     0.94870
C315        C  0.37950618  0.10825395  0.26319445     0.94670
N316        N  0.50772272  0.29639074  0.86121297    -0.07610
N317        N  0.54550095  0.32457589  0.84936452    -0.59730
N318        N  0.44253027  0.26804563  0.94260570    -0.07290
N319        N  0.43051427  0.27466085  0.98070636    -0.61860
N320        N  0.46819951  0.25226425  0.94670278    -0.06890
N321        N  0.47429494  0.24787302  0.98795235    -0.59710
N322        N  0.47914126  0.30860084  0.85541636    -0.06570
N323        N  0.49737236  0.34583763  0.84039141    -0.62210
C324        C  0.53865628  0.35494696  0.83570437     0.94560
C325        C  0.45061764  0.26222327  0.00845550     0.94340
N326        N  0.32584983  0.19691099  0.89393005    -0.07800
N327        N  0.29058337  0.18213502  0.91788525    -0.60310
N328        N  0.38042790  0.27058828  0.82107865    -0.05920
N329        N  0.37307048  0.29866446  0.80321320    -0.61560
N330        N  0.35420230  0.23556654  0.80503116    -0.07830
N331        N  0.33003146  0.23903146  0.77559552    -0.60580
N332        N  0.35340126  0.23169963  0.90973285    -0.05560
N333        N  0.33881195  0.24042918  0.94484687    -0.61650
Mn334      Mn  0.41447942  0.27141196  0.88139595     1.18440
C335        C  0.30008370  0.20955695  0.95015468     0.96640
C336        C  0.34142237  0.27816782  0.77467218     0.97310
N337        N  0.47578034  0.17412891  0.91269999    -0.07850
N338        N  0.48228422  0.15836034  0.94882647    -0.64160
N339        N  0.48925749  0.19472558  0.80218710    -0.06650
N340        N  0.50664480  0.19716807  0.76370956    -0.64830
N341        N  0.51391436  0.22491914  0.82641656    -0.07360
N342        N  0.54807863  0.24927636  0.80460845    -0.64420
N343        N  0.45447106  0.14517990  0.88552234    -0.06250
N344        N  0.44631995  0.11013022  0.90155642    -0.65110
Mn345      Mn  0.49284976  0.23698843  0.88861664     1.10660
C346        C  0.46373389  0.11795458  0.94089538     0.97870
C347        C  0.54322245  0.23184212  0.76548642     0.97940
N348        N  0.36533822  0.16678239  0.76877064    -0.07360
N349        N  0.35553858  0.17353229  0.72965721    -0.62740
N350        N  0.36652550  0.11235452  0.85475120    -0.06680
N351        N  0.35498883  0.07409542  0.85221298    -0.59470
N352        N  0.33369198  0.11900491  0.85235903    -0.07990
N353        N  0.29984403  0.08475004  0.84391916    -0.62300
N354        N  0.39733833  0.15883910  0.76695883    -0.06980
N355        N  0.40978083  0.15970648  0.72643291    -0.59490
Mn356      Mn  0.34317597  0.17844689  0.83073652     1.20190
Mn357      Mn  0.42722722  0.15253174  0.82654882     1.10090
Cl358      Cl  0.41934786  0.20992255  0.85707353    -0.87460
C359        C  0.38358591  0.16915227  0.70359653     0.94870
C360        C  0.31391647  0.05696444  0.84273286     0.94670
N361        N  0.66056536  0.78682735  0.14306455    -0.07610
N362        N  0.66180712  0.75246561  0.14865108    -0.59730
N363        N  0.67585700  0.87370189  0.18887933    -0.07290
N364        N  0.68637929  0.89139286  0.22684898    -0.61860
N365        N  0.63613912  0.84602926  0.18970255    -0.06890
N366        N  0.61851002  0.84509572  0.22742414    -0.59710
N367        N  0.69942591  0.81636827  0.14153253    -0.06570
N368        N  0.72726310  0.80334365  0.14494579    -0.62210
C369        C  0.70410348  0.76362066  0.14917877     0.94560
C370        C  0.64983731  0.87383680  0.25014432     0.94340
N371        N  0.72626196  0.95263657  0.08414960    -0.07800
N372        N  0.72812106  0.98838955  0.08762004    -0.60310
N373        N  0.75504896  0.87928948  0.07736164    -0.05920
N374        N  0.77885639  0.86123422  0.07443255    -0.61560
N375        N  0.74728423  0.88840946  0.03879488    -0.07830
N376        N  0.76555805  0.87653679  0.00887331    -0.60580
N377        N  0.73195553  0.94055270  0.12219880    -0.05560
N378        N  0.73831221  0.96767649  0.15192794    -0.61650
Mn379      Mn  0.71659637  0.87835748  0.13340005     1.18440
C380        C  0.73675690  0.99775897  0.12991665     0.96640
C381        C  0.78582490  0.86003559  0.03152356     0.97310
N382        N  0.55839641  0.82278324  0.13289839    -0.07850
N383        N  0.53230519  0.82316095  0.16321718    -0.64160
N384        N  0.56456844  0.77192716  0.05046711    -0.06650
N385        N  0.53397413  0.74016287  0.03124980    -0.64830
N386        N  0.57544983  0.76039692  0.08630898    -0.07360
N387        N  0.55294657  0.72135341  0.09177902    -0.64420
N388        N  0.55286005  0.83772253  0.09645628    -0.06250
N389        N  0.52301571  0.84847914  0.10106258    -0.65110
Mn390      Mn  0.60725641  0.80273003  0.13855736     1.10660
C391        C  0.51066187  0.83936070  0.14276121     0.97870
C392        C  0.52732233  0.70844967  0.05719559     0.97940
N393        N  0.66759176  0.86258528  0.98123084    -0.07360
N394        N  0.68421438  0.85504373  0.94651846    -0.62740
N395        N  0.61106836  0.90497587  0.02526066    -0.06680
N396        N  0.59158209  0.92708010  0.01757247    -0.59470
N397        N  0.65218832  0.92819928  0.02300230    -0.07990
N398        N  0.66153644  0.96546218  0.01469978    -0.62300
N399        N  0.62677403  0.83784130  0.98355872    -0.06980
N400        N  0.61496184  0.81319262  0.95057875    -0.59490
Mn401      Mn  0.69946266  0.90875807  0.03052740     1.20190
Mn402      Mn  0.58745026  0.83818886  0.03773758     1.10090
Cl403      Cl  0.65238917  0.85681075  0.08493364    -0.87460
C404        C  0.65108933  0.82384192  0.92786427     0.94870
C405        C  0.62405091  0.96506187  0.01136636     0.94670
N406        N  0.72601328  0.85583556  0.63476049    -0.07610
N407        N  0.73914979  0.84742047  0.67096265    -0.59730
N408        N  0.72476633  0.89063624  0.53874191    -0.07290
N409        N  0.74342724  0.90662091  0.50185164    -0.61860
N410        N  0.73112831  0.91829175  0.56741545    -0.06890
N411        N  0.75471082  0.95431111  0.55038188    -0.59710
N412        N  0.71484355  0.82642217  0.60720557    -0.06570
N413        N  0.71915059  0.79661038  0.62484738    -0.62210
C414        C  0.73496241  0.81068367  0.66453940     0.94560
C415        C  0.76179701  0.94618393  0.50915073     0.94340
N416        N  0.60549597  0.82162853  0.49358578    -0.07800
N417        N  0.59265136  0.82473041  0.45445690    -0.60310
N418        N  0.63710995  0.76567694  0.55551657    -0.05920
N419        N  0.64825732  0.73866036  0.54366004    -0.61560
N420        N  0.59643786  0.75278954  0.54975805    -0.07830
N421        N  0.57970881  0.71671605  0.53188235    -0.60580
N422        N  0.64579007  0.83075343  0.49261327    -0.05560
N423        N  0.66124950  0.84055536  0.45334045    -0.61650
Mn424      Mn  0.68115750  0.82793040  0.54869102     1.18440
C425        C  0.62812259  0.83660092  0.42984889     0.96640
C426        C  0.61253911  0.70809157  0.52943928     0.97310
N427        N  0.67452723  0.93879334  0.63178832    -0.07850
N428        N  0.69969809  0.97433776  0.64730721    -0.64160
N429        N  0.62728209  0.85596605  0.69775621    -0.06650
N430        N  0.61507586  0.83567472  0.73438020    -0.64830
N431        N  0.66853035  0.87221231  0.69296507    -0.07360
N432        N  0.68512334  0.86316477  0.72622432    -0.64420
N433        N  0.63529174  0.92625980  0.64578251    -0.06250
N434        N  0.63490375  0.95273284  0.67381457    -0.65110
Mn435      Mn  0.70078088  0.89768058  0.63121356     1.10660
C436        C  0.67526961  0.98293934  0.67363795     0.97870
C437        C  0.65164382  0.84026232  0.75166762     0.97940
N438        N  0.53952162  0.77201623  0.61532667    -0.07360
N439        N  0.51058990  0.73498952  0.62290627    -0.62740
N440        N  0.55048618  0.86285718  0.59163885    -0.06680
N441        N  0.52143442  0.87488136  0.59564529    -0.59470
N442        N  0.54163219  0.83811118  0.55857674    -0.07990
N443        N  0.50574956  0.83273013  0.54062168    -0.62300
N444        N  0.54457786  0.79473795  0.64929419    -0.06980
N445        N  0.51823441  0.77321844  0.68074701    -0.59490
Mn446      Mn  0.56979229  0.79590139  0.55342226     1.20190
Mn447      Mn  0.58869233  0.86047558  0.64650980     1.10090
Cl448      Cl  0.63477983  0.84588512  0.59451295    -0.87460
C449        C  0.49791309  0.73593590  0.66376055     0.94870
C450        C  0.49344321  0.85597837  0.56396063     0.94670
N451        N  0.79857409  0.27797060  0.34212169    -0.07610
N452        N  0.78226087  0.30279452  0.34346859    -0.59730
N453        N  0.84949908  0.25801071  0.26426734    -0.07290
N454        N  0.86508043  0.26682686  0.22424743    -0.61860
N455        N  0.80818176  0.23741006  0.26291993    -0.06890
N456        N  0.79469985  0.23181046  0.22329961    -0.59710
N457        N  0.83991017  0.29754824  0.34719896    -0.06570
N458        N  0.85230211  0.33605013  0.35210880    -0.62210
C459        C  0.81596121  0.33859427  0.35063955     0.94560
C460        C  0.82996475  0.24980347  0.19915445     0.94340
N461        N  0.91554746  0.20971332  0.33050063    -0.07800
N462        N  0.94306045  0.19957765  0.31227207    -0.60310
N463        N  0.91056659  0.27907219  0.39401196    -0.05920
N464        N  0.94095751  0.31067442  0.41350465    -0.61560
N465        N  0.90408377  0.24659618  0.41526970    -0.07830
N466        N  0.92742731  0.25481588  0.44970918    -0.60580
N467        N  0.91639441  0.24034874  0.30939681    -0.05560
N468        N  0.94311932  0.25115390  0.27664881    -0.61650
Mn469      Mn  0.88026532  0.27042615  0.32876111     1.18440
C470        C  0.95967370  0.22580579  0.27838017     0.96640
C471        C  0.95015235  0.29456663  0.44891361     0.97310
N472        N  0.73903154  0.15500392  0.29158967    -0.07850
N473        N  0.73318264  0.14398805  0.25056865    -0.64160
N474        N  0.72050116  0.16606512  0.39690841    -0.06650
N475        N  0.68864516  0.15650629  0.42470065    -0.64830
N476        N  0.72522241  0.19650461  0.37295511    -0.07360
N477        N  0.69770639  0.20879536  0.38391730    -0.64420
N478        N  0.73557843  0.12513759  0.31608842    -0.06250
N479        N  0.72684337  0.09322467  0.29239888    -0.65110
Mn480      Mn  0.76694297  0.21675649  0.31733498     1.10660
C481        C  0.72466589  0.10513444  0.25171332     0.97870
C482        C  0.67510035  0.18397084  0.41636006     0.97940
N483        N  0.83152963  0.16971746  0.44856133    -0.07360
N484        N  0.84258325  0.18070569  0.48893968    -0.62740
N485        N  0.79964772  0.10745184  0.36752538    -0.06680
N486        N  0.78640570  0.06909507  0.37467294    -0.59470
N487        N  0.84124910  0.12673335  0.36846222    -0.07990
N488        N  0.85646702  0.10178445  0.37671262    -0.62300
N489        N  0.79006731  0.15223266  0.44539766    -0.06980
N490        N  0.77230553  0.15093848  0.48335099    -0.59490
Mn491      Mn  0.87362915  0.18760975  0.39028607     1.20190
Mn492      Mn  0.76016720  0.13659101  0.38206732     1.10090
Cl493      Cl  0.82043679  0.20305674  0.35476247    -0.87460
C494        C  0.80535436  0.16837412  0.51048540     0.94870
C495        C  0.82203924  0.06593856  0.38064233     0.94670
N496        N  0.88883177  0.28307349  0.80373247    -0.07610
N497        N  0.91765834  0.30168179  0.77328047    -0.59730
N498        N  0.87686570  0.25044539  0.90933066    -0.07290
N499        N  0.90403997  0.26463574  0.94059452    -0.61860
N500        N  0.88899235  0.23313014  0.87948640    -0.06890
N501        N  0.92867891  0.24111754  0.88807511    -0.59710
N502        N  0.88780392  0.30882855  0.83151910    -0.06570
N503        N  0.91635379  0.34565983  0.82062458    -0.62210
C504        C  0.93448999  0.34079321  0.78398764     0.94560
C505        C  0.93716504  0.26074148  0.92687471     0.94340
N506        N  0.77383574  0.25166726  0.95592938    -0.07800
N507        N  0.76248184  0.24372356  0.99709345    -0.60310
N508        N  0.81703341  0.32236426  0.87794876    -0.05920
N509        N  0.83475460  0.36117575  0.87192422    -0.61560
N510        N  0.77577334  0.30692860  0.88183398    -0.07830
N511        N  0.76443806  0.33553506  0.87834254    -0.60580
N512        N  0.81512719  0.27020396  0.95242611    -0.05560
N513        N  0.83287789  0.27538416  0.99032737    -0.61650
Mn514      Mn  0.84944401  0.28832128  0.89220220     1.18440
C515        C  0.80003545  0.25887831  0.01807218     0.96640
C516        C  0.80182126  0.36903426  0.87148992     0.97310
N517        N  0.81132790  0.15171236  0.82499987    -0.07850
N518        N  0.81555873  0.12320070  0.80363028    -0.64160
N519        N  0.77620748  0.19264422  0.75686662    -0.06650
N520        N  0.76225687  0.18752263  0.71673464    -0.64830
N521        N  0.81773292  0.20958637  0.75662859    -0.07360
N522        N  0.83276548  0.21619187  0.71670162    -0.64420
N523        N  0.77082749  0.13783181  0.83467669    -0.06250
N524        N  0.74920087  0.09974288  0.82542320    -0.65110
Mn525      Mn  0.85279119  0.21867239  0.81631421     1.10660
C526        C  0.77642804  0.09059719  0.80480684     0.97870
C527        C  0.79795504  0.20287269  0.69193486     0.97940
N528        N  0.70750286  0.23417791  0.83255803    -0.07360
N529        N  0.69197811  0.25611523  0.81465095    -0.62740
N530        N  0.70153820  0.15112611  0.87818940    -0.06680
N531        N  0.68052445  0.11347943  0.89109338    -0.59470
N532        N  0.70164220  0.17547075  0.90852496    -0.07990
N533        N  0.68091525  0.15438208  0.94331810    -0.62300
N534        N  0.70897757  0.20910161  0.80411413    -0.06980
N535        N  0.69430079  0.21302580  0.76659899    -0.59490
Mn536      Mn  0.73769344  0.24176476  0.89600327     1.20190
Mn537      Mn  0.73865241  0.17225451  0.81812212     1.10090
Cl538      Cl  0.79457225  0.22995312  0.85565885    -0.87460
C539        C  0.68429669  0.24279851  0.77338083     0.94870
C540        C  0.66738832  0.11552262  0.93155587     0.94670
C541        C  0.79871450  0.19876619  0.64415409    -0.07620
C542        C  0.76273533  0.16905434  0.62412096    -0.18750
C543        C  0.76405253  0.15770662  0.58125952     0.09580
C544        C  0.80186595  0.17776508  0.55659035    -0.07540
C545        C  0.83707197  0.20936585  0.57584116    -0.18780
C546        C  0.83572150  0.22048448  0.61877848     0.09610
S547        S  0.71713465  0.11582962  0.56116541    -0.33750
S548        S  0.88162464  0.26388653  0.63828439    -0.33750
H549        H  0.85835988  0.27791122  0.66344397     0.27620
H550        H  0.73919348  0.09630939  0.54418266     0.27610
H551        H  0.73376353  0.15320711  0.64262319     0.18210
H552        H  0.86579752  0.22622899  0.55705777     0.18210
C553        C  0.82658398  0.25073542  0.15168310    -0.07620
C554        C  0.78669186  0.22456171  0.13457597    -0.18750
C555        C  0.77597092  0.22816789  0.09241519     0.09580
C556        C  0.80670962  0.25670736  0.06477518    -0.07540
C557        C  0.84735853  0.28189368  0.08115681    -0.18780
C558        C  0.85760276  0.27926424  0.12415775     0.09610
S559        S  0.72230531  0.19590326  0.07685599    -0.33750
S560        S  0.90995673  0.31356043  0.14180482    -0.33750
H561        H  0.91718981  0.28315711  0.15990325     0.27620
H562        H  0.71491641  0.22809112  0.06528503     0.27610
H563        H  0.76236813  0.20189965  0.15485028     0.18210
H564        H  0.87158844  0.30396859  0.06030558     0.18210
C565        C  0.69577736  0.00977294  0.71036654    -0.07620
C566        C  0.71029516  0.99495743  0.74455574    -0.18750
C567        C  0.74037896  0.02085410  0.77395490     0.09580
C568        C  0.75792973  0.06268068  0.76831387    -0.07540
C569        C  0.74358944  0.07723262  0.73362960    -0.18780
C570        C  0.71204824  0.05129708  0.70573208     0.09610
S571        S  0.75465458  0.99887938  0.81836561    -0.33750
S572        S  0.69197554  0.07240960  0.66582064    -0.33750
H573        H  0.65199289  0.03872569  0.66226609     0.27620
H574        H  0.79355048  0.03261081  0.82678207     0.27610
H575        H  0.69894109  0.96296232  0.74765277     0.18210
H576        H  0.75459273  0.10914906  0.73040312     0.18210
C577        C  0.78260848  0.97589214  0.47434956    -0.07620
C578        C  0.81632624  0.01324390  0.48419223    -0.18750
C579        C  0.83551356  0.04249404  0.45200072     0.09580
C580        C  0.82033457  0.03418967  0.40902884    -0.07540
C581        C  0.78965653  0.99578177  0.39868324    -0.18780
C582        C  0.76963144  0.96723866  0.43078401     0.09610
S583        S  0.87609082  0.09072605  0.46885061    -0.33750
S584        S  0.72332197  0.92343117  0.41409632    -0.33750
H585        H  0.69793550  0.92560818  0.44798378     0.27620
H586        H  0.90338208  0.09426393  0.43416146     0.27610
H587        H  0.82710703  0.02001881  0.51722403     0.18210
H588        H  0.77718228  0.98966695  0.36616049     0.18210
C589        C  0.72430599  0.08178241  0.21333170    -0.07620
C590        C  0.76237534  0.09339572  0.19033707    -0.18750
C591        C  0.76661060  0.06777689  0.16009216     0.09580
C592        C  0.73197675  0.02985325  0.15239317    -0.07540
C593        C  0.69326095  0.01934369  0.17352130    -0.18780
C594        C  0.68904941  0.04487716  0.20371541     0.09610
S595        S  0.81790866  0.08352183  0.13554303    -0.33750
S596        S  0.63852522  0.02789311  0.23050197    -0.33750
H597        H  0.64326958  0.06622953  0.23951550     0.27620
H598        H  0.80321642  0.06012838  0.09816706     0.27610
H599        H  0.78973941  0.12153580  0.19791076     0.18210
H600        H  0.66662478  0.99012468  0.16801639     0.18210
C601        C  0.64807833  0.07944071  0.96038474    -0.07620
C602        C  0.61236057  0.04480887  0.94596026    -0.18750
C603        C  0.59986806  0.00681720  0.96494566     0.09580
C604        C  0.62294901  0.00308297  0.99988290    -0.07540
C605        C  0.65561497  0.03850380  0.01708241    -0.18780
C606        C  0.66922249  0.07596444  0.99711801     0.09610
S607        S  0.55706351  0.96406104  0.94059333    -0.33750
S608        S  0.71767714  0.11660398  0.01621628    -0.33750
H609        H  0.73605589  0.12953744  0.97500451     0.27620
H610        H  0.57963236  0.94216598  0.93660545     0.27610
H611        H  0.59598125  0.04683631  0.91755371     0.18210
H612        H  0.67398194  0.03639444  0.04370282     0.18210
C613        C  0.65430631  0.82380268  0.79402344    -0.07620
C614        C  0.61634944  0.79742006  0.81486727    -0.18750
C615        C  0.61529945  0.78990394  0.85904940     0.09580
C616        C  0.65252086  0.81140367  0.88303109    -0.07540
C617        C  0.69137408  0.83063017  0.86091157    -0.18780
C618        C  0.69285298  0.83665282  0.81626472     0.09610
S619        S  0.56531369  0.75483893  0.88284039    -0.33750
S620        S  0.74402056  0.86384934  0.79017702    -0.33750
H621        H  0.76788958  0.85992480  0.82396336     0.27620
H622        H  0.58363096  0.74235673  0.91561498     0.27610
H623        H  0.58693807  0.78422617  0.79725201     0.18210
H624        H  0.72040254  0.84474603  0.87901990     0.18210
C625        C  0.63179590  0.84470052  0.38319600    -0.07620
C626        C  0.61031994  0.86385216  0.36477259    -0.18750
C627        C  0.61801548  0.87696626  0.32168172     0.09580
C628        C  0.64839271  0.87160817  0.29716083    -0.07540
C629        C  0.67002420  0.85290973  0.31575713    -0.18780
C630        C  0.66100104  0.83812027  0.35776327     0.09610
S631        S  0.58816843  0.90001452  0.29957424    -0.33750
S632        S  0.68586751  0.80880114  0.37573176    -0.33750
H633        H  0.65068216  0.78137302  0.40002084     0.27620
H634        H  0.61740343  0.92167276  0.26662009     0.27610
H635        H  0.58814796  0.86927171  0.38415400     0.18210
H636        H  0.69160295  0.84674055  0.29619038     0.18210
C637        C  0.57864225  0.24491843  0.73435703    -0.07620
C638        C  0.61276640  0.28272179  0.74276619    -0.18750
C639        C  0.65276363  0.28600415  0.74922363     0.09580
C640        C  0.65798211  0.25159356  0.74379136    -0.07540
C641        C  0.62763031  0.21923745  0.72050827    -0.18780
C642        C  0.58744664  0.21577564  0.71518405     0.09610
S643        S  0.69357493  0.33215261  0.77062496    -0.33750
S644        S  0.54729214  0.17017533  0.69240745    -0.33750
H645        H  0.52255403  0.18776848  0.67861585     0.27620
H646        H  0.72710714  0.32389897  0.76038564     0.27610
H647        H  0.60680461  0.30693253  0.75353113     0.18210
H648        H  0.63259876  0.19378996  0.71273907     0.18210
C649        C  0.56198646  0.19223371  0.42828728    -0.07620
C650        C  0.55978263  0.15432273  0.43300525    -0.18750
C651        C  0.59675983  0.15023692  0.43591268     0.09580
C652        C  0.63664106  0.18476196  0.43345566    -0.07540
C653        C  0.63814862  0.22257610  0.43485411    -0.18780
C654        C  0.60144610  0.22668011  0.43228140     0.09610
S655        S  0.59110192  0.10039358  0.43690323    -0.33750
S656        S  0.60735266  0.27679527  0.43066925    -0.33750
H657        H  0.56649236  0.26635959  0.44649660     0.27620
H658        H  0.62222278  0.10943945  0.46849628     0.27610
H659        H  0.52949864  0.12768228  0.43058985     0.18210
H660        H  0.66849557  0.24938473  0.43404674     0.18210
C661        C  0.38643973  0.18751542  0.56617474    -0.07620
C662        C  0.42301214  0.20965723  0.59015526    -0.18750
C663        C  0.42325839  0.20430055  0.63496586     0.09580
C664        C  0.38609517  0.17581820  0.65634743    -0.07540
C665        C  0.34919281  0.15471452  0.63235118    -0.18780
C666        C  0.34912428  0.15969472  0.58753138     0.09610
S667        S  0.47009004  0.23827612  0.66332086    -0.33750
S668        S  0.30033809  0.12989722  0.55961755    -0.33750
H669        H  0.31880692  0.12632312  0.52068878     0.27620
H670        H  0.47273668  0.20871918  0.68817270     0.27610
H671        H  0.45139417  0.23174851  0.57394281     0.18210
H672        H  0.32021585  0.13383741  0.64860954     0.18210
C673        C  0.42993331  0.25695048  0.14437852    -0.07620
C674        C  0.42007562  0.22174238  0.12152410    -0.18750
C675        C  0.42499617  0.22249296  0.07680494     0.09580
C676        C  0.44226994  0.25946476  0.05481288    -0.07540
C677        C  0.45010802  0.29440683  0.07714257    -0.18780
C678        C  0.44438061  0.29363042  0.12187906     0.09610
S679        S  0.40589666  0.17521799  0.04947273    -0.33750
S680        S  0.45883405  0.34062112  0.14839506    -0.33750
H681        H  0.48120374  0.33381658  0.18172711     0.27620
H682        H  0.39425715  0.18713818  0.01101480     0.27610
H683        H  0.40797092  0.19337440  0.13862535     0.18210
H684        H  0.46220204  0.32265773  0.05983311     0.18210
C685        C  0.46015131  0.70189329  0.68161071    -0.07620
C686        C  0.46438682  0.66882265  0.69616147    -0.18750
C687        C  0.43016767  0.63013272  0.69507363     0.09580
C688        C  0.39142531  0.62447469  0.67752832    -0.07540
C689        C  0.38579389  0.65815495  0.66920354    -0.18780
C690        C  0.41977733  0.69667718  0.67052203     0.09610
S691        S  0.43966447  0.58930830  0.71117047    -0.33750
S692        S  0.41057410  0.73720751  0.65228118    -0.33750
H693        H  0.44510416  0.75386795  0.62333558     0.27620
H694        H  0.40203769  0.57032612  0.73576008     0.27610
H695        H  0.49536873  0.67266383  0.70466820     0.18210
H696        H  0.35579980  0.65427097  0.65705792     0.18210
C697        C  0.31886190  0.29492139  0.74831032    -0.07620
C698        C  0.33793775  0.33630314  0.74198134    -0.18750
C699        C  0.31961658  0.35381630  0.71548447     0.09580
C700        C  0.28183765  0.32905224  0.69288889    -0.07540
C701        C  0.26134185  0.28796909  0.70110323    -0.18780
C702        C  0.27883605  0.27053390  0.72907760     0.09610
S703        S  0.34430935  0.40801652  0.71304145    -0.33750
S704        S  0.24833200  0.21745143  0.74041109    -0.33750
H705        H  0.21191669  0.21056637  0.71732734     0.27620
H706        H  0.37494131  0.41594500  0.74490087     0.27610
H707        H  0.36758294  0.35503661  0.75770119     0.18210
H708        H  0.23180803  0.26952201  0.68503537     0.18210
C709        C  0.39302404  0.38255282  0.44674518    -0.07620
C710        C  0.37456949  0.40200019  0.42294906    -0.18750
C711        C  0.36020776  0.42680808  0.44335667     0.09580
C712        C  0.36670860  0.43438656  0.48813453    -0.07540
C713        C  0.38935846  0.41803284  0.51041825    -0.18780
C714        C  0.40182900  0.39198723  0.49065830     0.09610
S715        S  0.33057970  0.44450381  0.41156028    -0.33750
S716        S  0.42769117  0.37088266  0.52394203    -0.33750
H717        H  0.44834058  0.36180777  0.49031433     0.27620
H718        H  0.29539129  0.42817054  0.43982746     0.27610
H719        H  0.36834108  0.39538502  0.38894677     0.18210
H720        H  0.39597277  0.42410724  0.54448126     0.18210
C721        C  0.98873910  0.31202588  0.47482597    -0.07620
C722        C  0.98327570  0.30752128  0.51996305    -0.18750
C723        C  0.01566174  0.30962175  0.54670472     0.09580
C724        C  0.05477291  0.31658526  0.52836445    -0.07540
C725        C  0.05889416  0.31783833  0.48308798    -0.18780
C726        C  0.02696590  0.31656319  0.45642605     0.09610
S727        S  0.00627958  0.30535696  0.60424214    -0.33750
S728        S  0.03631174  0.31965135  0.39890410    -0.33750
H729        H  0.01991460  0.34645057  0.39188894     0.27620
H730        H  0.03506309  0.29073799  0.61285164     0.27610
H731        H  0.95291671  0.30083204  0.53437294     0.18210
H732        H  0.08911811  0.32429790  0.46849009     0.18210
C733        C  0.04965143  0.41798858  0.71589368    -0.07620
C734        C  0.04939665  0.41435376  0.76101170    -0.18750
C735        C  0.01181087  0.39232164  0.78438490     0.09580
C736        C  0.97300810  0.37240122  0.76248436    -0.07540
C737        C  0.97280308  0.37779940  0.71756719    -0.18780
C738        C  0.01051856  0.40044731  0.69409345     0.09610
S739        S  0.01628962  0.38691254  0.84141955    -0.33750
S740        S  0.00671409  0.40256916  0.63623964    -0.33750
H741        H  0.03858360  0.39174412  0.62732931     0.27620
H742        H  0.98712606  0.40086096  0.85167857     0.27610
H743        H  0.07913652  0.42719568  0.77809186     0.18210
H744        H  0.94330747  0.36244576  0.70030858     0.18210
C745        C  0.49074525  0.66643575  0.05547379    -0.07620
C746        C  0.48001372  0.64372137  0.09406027    -0.18750
C747        C  0.44490201  0.60565799  0.09742174     0.09580
C748        C  0.41834409  0.58862546  0.06160307    -0.07540
C749        C  0.42934963  0.61027357  0.02233429    -0.18780
C750        C  0.46530652  0.64856630  0.01876763     0.09610
S751        S  0.43530584  0.58055246  0.14915416    -0.33750
S752        S  0.47703817  0.67269823  0.96660167    -0.33750
H753        H  0.52103665  0.68774316  0.96996307     0.27620
H754        H  0.41838489  0.54161539  0.13230411     0.27610
H755        H  0.49874747  0.65593230  0.12273343     0.18210
H756        H  0.40935920  0.59771831  0.99450925     0.18210
C757        C  0.27033256  0.28939830  0.28712262    -0.07620
C758        C  0.26275074  0.28443097  0.24290306    -0.18750
C759        C  0.27474011  0.31740360  0.21541831     0.09580
C760        C  0.28960069  0.35667813  0.23231377    -0.07540
C761        C  0.29121310  0.36053302  0.27753526    -0.18780
C762        C  0.28082417  0.32723886  0.30491160     0.09610
S763        S  0.27571082  0.30659243  0.15937992    -0.33750
S764        S  0.28554846  0.33509238  0.36231453    -0.33750
H765        H  0.25889137  0.29479456  0.37334207     0.27620
H766        H  0.32021387  0.32644604  0.15718279     0.27610
H767        H  0.25520657  0.25565451  0.22872169     0.18210
H768        H  0.30360626  0.38979014  0.29152995     0.18210
C769        C  0.25124126  0.26306563  0.03441263    -0.07620
C770        C  0.27735638  0.24800122  0.05057329    -0.18750
C771        C  0.28688388  0.22221287  0.02582036     0.09580
C772        C  0.27171431  0.21251903  0.98313534    -0.07540
C773        C  0.24205586  0.22412614  0.96877378    -0.18780
C774        C  0.23143669  0.24902359  0.99402425     0.09610
S775        S  0.32287144  0.20636545  0.04829272    -0.33750
S776        S  0.19787234  0.26699694  0.96994067    -0.33750
H777        H  0.16732424  0.25122151  0.00326408     0.27620
H778        H  0.31298989  0.17460361  0.01934460     0.27610
H779        H  0.29192557  0.25774816  0.08184349     0.18210
H780        H  0.23097246  0.21782475  0.93579713     0.18210
C781        C  0.26397516  0.43093984  0.90048093    -0.07620
C782        C  0.23981628  0.44905091  0.88663672    -0.18750
C783        C  0.23929433  0.45845862  0.84323042     0.09580
C784        C  0.26300262  0.44905768  0.81317410    -0.07540
C785        C  0.28883076  0.43273420  0.82726668    -0.18780
C786        C  0.28899315  0.42288272  0.87070805     0.09610
S787        S  0.20756270  0.48196623  0.82804302    -0.33750
S788        S  0.31848932  0.39695329  0.88532012    -0.33750
H789        H  0.28994896  0.37230586  0.91732523     0.27620
H790        H  0.23195778  0.50209855  0.79144850     0.27610
H791        H  0.22085066  0.45545989  0.90976287     0.18210
H792        H  0.30645280  0.42485883  0.80391230     0.18210
C793        C  0.19497877  0.45801152  0.39908844    -0.07620
C794        C  0.22620334  0.45169393  0.37864802    -0.18750
C795        C  0.22431976  0.44296741  0.33498349     0.09580
C796        C  0.19113039  0.44170890  0.30953493    -0.07540
C797        C  0.15797127  0.44531952  0.33026966    -0.18780
C798        C  0.15957474  0.45352859  0.37488863     0.09610
S799        S  0.26596024  0.43396522  0.31399739    -0.33750
S800        S  0.11735993  0.46083542  0.39800725    -0.33750
H801        H  0.14413717  0.49433509  0.42253567     0.27620
H802        H  0.23938579  0.40379427  0.28557826     0.27610
H803        H  0.25264073  0.45351682  0.39698670     0.18210
H804        H  0.13224875  0.44439724  0.31131431     0.18210
C805        C  0.05011890  0.34411917  0.99146923    -0.07620
C806        C  0.02212582  0.35672330  0.97564098    -0.18750
C807        C  0.98709032  0.33095336  0.95161090     0.09580
C808        C  0.97912204  0.29082096  0.94288777    -0.07540
C809        C  0.00707402  0.27808297  0.95903378    -0.18780
C810        C  0.04217606  0.30397260  0.98356301     0.09610
S811        S  0.95354572  0.35174913  0.93389866    -0.33750
S812        S  0.07456014  0.28403345  0.00722621    -0.33750
H813        H  0.05435053  0.24591707  0.98826245     0.27620
H814        H  0.94311850  0.33025488  0.89517442     0.27610
H815        H  0.02815291  0.38725872  0.98111722     0.18210
H816        H  0.00002505  0.24719714  0.95444236     0.18210
C817        C  0.06124727  0.26826549  0.18668733    -0.07620
C818        C  0.06860724  0.25965898  0.22909674    -0.18750
C819        C  0.03519824  0.24096588  0.25937923     0.09580
C820        C  0.99330860  0.23014414  0.24696560    -0.07540
C821        C  0.98585584  0.23514303  0.20338683    -0.18780
C822        C  0.01905182  0.25399818  0.17341057     0.09610
S823        S  0.04866652  0.23614226  0.31424779    -0.33750
S824        S  0.00591882  0.26420952  0.12032275    -0.33750
H825        H  0.04023733  0.26303316  0.09925031     0.27620
H826        H  0.02272108  0.25050659  0.33349489     0.27610
H827        H  0.10088001  0.27110684  0.23994419     0.18210
H828        H  0.95401385  0.22747791  0.19341169     0.18210
C829        C  0.36710620  0.84715017  0.56430858    -0.07620
C830        C  0.38850933  0.84923259  0.60289422    -0.18750
C831        C  0.42829690  0.85082200  0.60347446     0.09580
C832        C  0.44952016  0.85176850  0.56417821    -0.07540
C833        C  0.42796166  0.84855928  0.52522610    -0.18780
C834        C  0.38709370  0.84595400  0.52491041     0.09610
S835        S  0.44882030  0.85002600  0.65636052    -0.33750
S836        S  0.36312390  0.84319414  0.47343864    -0.33750
H837        H  0.32672100  0.80732815  0.48396751     0.27620
H838        H  0.46504172  0.82387207  0.64499573     0.27610
H839        H  0.37377438  0.84897606  0.63373778     0.18210
H840        H  0.44323969  0.84862730  0.49479672     0.18210
C841        C  0.21927661  0.62408226  0.61845430    -0.07620
C842        C  0.19094385  0.62045920  0.65212137    -0.18750
C843        C  0.18423052  0.65277282  0.66384933     0.09580
C844        C  0.20606888  0.68916601  0.64122768    -0.07540
C845        C  0.23689415  0.69377607  0.61023671    -0.18780
C846        C  0.24327214  0.66156588  0.59804338     0.09610
S847        S  0.14554047  0.64504856  0.70549326    -0.33750
S848        S  0.27828842  0.66926450  0.55264301    -0.33750
H849        H  0.24917208  0.63516785  0.53036468     0.27620
H850        H  0.16213528  0.68551447  0.71706519     0.27610
H851        H  0.17292837  0.59193571  0.66846357     0.18210
H852        H  0.25344495  0.72183408  0.59259365     0.18210
C853        C  0.25090635  0.07054895  0.45424770    -0.07620
C854        C  0.21745185  0.07147783  0.47758909    -0.18750
C855        C  0.20032730  0.04767799  0.51470819     0.09580
C856        C  0.21804494  0.02376418  0.52999609    -0.07540
C857        C  0.25283744  0.02462645  0.50851958    -0.18780
C858        C  0.26833195  0.04601106  0.47022677     0.09610
S859        S  0.15495195  0.04770541  0.54036901    -0.33750
S860        S  0.30904423  0.03819702  0.44370257    -0.33750
H861        H  0.28754775  0.02730371  0.40417876     0.27620
H862        H  0.16002367  0.03336515  0.58070000     0.27610
H863        H  0.20415493  0.09036660  0.46655435     0.18210
H864        H  0.26527664  0.00488582  0.51926569     0.18210
C865        C  0.31586248  0.99562390  0.72940117    -0.07620
C866        C  0.31933949  0.98062313  0.76972272    -0.18750
C867        C  0.31264744  0.99675176  0.80805242     0.09580
C868        C  0.30393839  0.02958867  0.80606564    -0.07540
C869        C  0.30463778  0.04667780  0.76546269    -0.18780
C870        C  0.31263538  0.03131478  0.72776002     0.09610
S871        S  0.31632213  0.97485031  0.85865954    -0.33750
S872        S  0.31610392  0.05709165  0.67755195    -0.33750
H873        H  0.33629549  0.03886177  0.65408447     0.27620
H874        H  0.29202864  0.98826743  0.88295023     0.27610
H875        H  0.32420451  0.95450454  0.77126468     0.18210
H876        H  0.30227568  0.07417821  0.76311378     0.18210
C877        C  0.40235229  0.85260773  0.17115748    -0.07620
C878        C  0.40161937  0.81619648  0.18177955    -0.18750
C879        C  0.43793139  0.81150375  0.17628971     0.09580
C880        C  0.47571210  0.84436439  0.16146584    -0.07540
C881        C  0.47751169  0.88196987  0.15676661    -0.18780
C882        C  0.44126024  0.88647437  0.16185203     0.09610
S883        S  0.43241773  0.76184739  0.18263806    -0.33750
S884        S  0.44544674  0.93517779  0.15146633    -0.33750
H885        H  0.40815496  0.92797900  0.17395160     0.27620
H886        H  0.45422312  0.76272730  0.14424454     0.27610
H887        H  0.37166556  0.79001082  0.18863481     0.18210
H888        H  0.50667967  0.90740492  0.14609820     0.18210
C889        C  0.22174857  0.66989414  0.07209476    -0.07620
C890        C  0.18989971  0.64110246  0.09910654    -0.18750
C891        C  0.18718769  0.60338997  0.10790865     0.09580
C892        C  0.21660511  0.59267778  0.08910828    -0.07540
C893        C  0.24767076  0.62063013  0.06089728    -0.18780
C894        C  0.24996694  0.65835608  0.05152015     0.09610
S895        S  0.14730433  0.57159012  0.14632615    -0.33750
S896        S  0.29031379  0.69062994  0.01407573    -0.33750
H897        H  0.26220499  0.69877021  0.98970311     0.27620
H898        H  0.17346144  0.55891017  0.16779281     0.27610
H899        H  0.16758482  0.64861569  0.11529031     0.18210
H900        H  0.27032351  0.61293950  0.04578145     0.18210
C901        C  0.40910479  0.00720079  0.01126087    -0.07620
C902        C  0.42081656  0.04316590  0.03398845    -0.18750
C903        C  0.44592277  0.08100659  0.01452320     0.09580
C904        C  0.45674625  0.08341304  0.97018220    -0.07540
C905        C  0.44942811  0.04745128  0.94951956    -0.18780
C906        C  0.42653569  0.00984866  0.96957435     0.09610
S907        S  0.46170983  0.12467143  0.04730816    -0.33750
S908        S  0.41521659  0.96617109  0.93785314    -0.33750
H909        H  0.42268754  0.94578117  0.97198026     0.27620
H910        H  0.50104759  0.14642710  0.02629603     0.27610
H911        H  0.40866230  0.04182172  0.06651705     0.18210
H912        H  0.45871894  0.04829881  0.91592234     0.18210
C913        C  0.29319429  0.02471492  0.16964621    -0.07620
C914        C  0.33677527  0.04580292  0.15981039    -0.18750
C915        C  0.36589133  0.07317854  0.18920843     0.09580
C916        C  0.35144285  0.08008998  0.22960843    -0.07540
C917        C  0.30779182  0.06006581  0.23847201    -0.18780
C918        C  0.27879914  0.03352294  0.20901029     0.09610
S919        S  0.42107167  0.09628585  0.17423734    -0.33750
S920        S  0.22358794  0.01296512  0.22344831    -0.33750
H921        H  0.21030829  0.01389409  0.18098545     0.27620
H922        H  0.43518648  0.09394365  0.21589049     0.27610
H923        H  0.34859825  0.03954783  0.12995712     0.18210
H924        H  0.29577426  0.06581106  0.26849395     0.18210
C925        C  0.19677835  0.81519870  0.89221849    -0.07620
C926        C  0.22402299  0.84365421  0.86273998    -0.18750
C927        C  0.20946770  0.84891610  0.82319308     0.09580
C928        C  0.16710979  0.82410727  0.81165467    -0.07540
C929        C  0.13998417  0.79398684  0.84018300    -0.18780
C930        C  0.15432142  0.78987451  0.88102049     0.09610
S931        S  0.24565414  0.88775236  0.78742858    -0.33750
S932        S  0.11728172  0.75262721  0.91769731    -0.33750
H933        H  0.14768642  0.75106841  0.94495147     0.27620
H934        H  0.28273356  0.89132792  0.80660145     0.27610
H935        H  0.25600434  0.86425254  0.87229760     0.18210
H936        H  0.10801443  0.77359320  0.83054775     0.18210
C937        C  0.21662612  0.87646940  0.39508967    -0.07620
C938        C  0.22342300  0.84630360  0.37601007    -0.18750
C939        C  0.22760530  0.84427178  0.33171170     0.09580
C940        C  0.22760105  0.87466260  0.30497653    -0.07540
C941        C  0.22238255  0.90588974  0.32394982    -0.18780
C942        C  0.21631791  0.90678805  0.36869551     0.09610
S943        S  0.22851838  0.79966556  0.31223698    -0.33750
S944        S  0.20938001  0.94747054  0.39030377    -0.33750
H945        H  0.16665406  0.92251304  0.40115613     0.27620
H946        H  0.19415836  0.78954458  0.28443586     0.27610
H947        H  0.22298394  0.82226471  0.39550005     0.18210
H948        H  0.22220785  0.92926818  0.30376332     0.18210
C949        C  0.57355093  0.39593054  0.83017704    -0.07620
C950        C  0.59502549  0.41515461  0.86750383    -0.18750
C951        C  0.62939152  0.45343073  0.86580599     0.09580
C952        C  0.64203855  0.47443747  0.82582555    -0.07540
C953        C  0.62133936  0.45462916  0.78798489    -0.18780
C954        C  0.58764438  0.41530373  0.78970188     0.09610
S955        S  0.65674173  0.47249821  0.91592815    -0.33750
S956        S  0.56425729  0.39152132  0.73945174    -0.33750
H957        H  0.55012017  0.35188164  0.75357965     0.27620
H958        H  0.69725331  0.48981719  0.89670719     0.27610
H959        H  0.58535061  0.39976709  0.89842586     0.18210
H960        H  0.63104482  0.46996207  0.75708303     0.18210
C961        C  0.83841613  0.49294909  0.88283340    -0.07620
C962        C  0.85628431  0.47916962  0.85067860    -0.18750
C963        C  0.84119197  0.43857940  0.84317103     0.09580
C964        C  0.80857395  0.41035729  0.86968185    -0.07540
C965        C  0.78917398  0.42356989  0.90070770    -0.18780
C966        C  0.80315924  0.46459415  0.90700646     0.09610
S967        S  0.86533100  0.42471345  0.79931043    -0.33750
S968        S  0.77421743  0.47829946  0.94554444    -0.33750
H969        H  0.76974778  0.50503457  0.91698862     0.27620
H970        H  0.82921885  0.38843636  0.79011923     0.27610
H971        H  0.88234544  0.50023154  0.83077814     0.18210
H972        H  0.76402798  0.40194825  0.92109973     0.18210
C973        C  0.80311705  0.83422686  0.01261389    -0.07620
C974        C  0.81021643  0.80858265  0.04068030    -0.18750
C975        C  0.81786027  0.77775728  0.02492959     0.09580
C976        C  0.81787276  0.77161636  0.98000008    -0.07540
C977        C  0.81374111  0.79873457  0.95188897    -0.18780
C978        C  0.80752745  0.83041766  0.96750937     0.09610
S979        S  0.82198468  0.74425117  0.06373254    -0.33750
S980        S  0.80446252  0.86392402  0.92790114    -0.33750
H981        H  0.82729062  0.89843553  0.95281543     0.27620
H982        H  0.85683729  0.74377591  0.04296414     0.27610
H983        H  0.80758860  0.81102202  0.07534556     0.18210
H984        H  0.81405574  0.79442530  0.91726252     0.18210
C985        C  0.73659140  0.74182152  0.77374778    -0.07620
C986        C  0.69858450  0.73099574  0.75211381    -0.18750
C987        C  0.69705329  0.75312887  0.71649801     0.09580
C988        C  0.73463400  0.78606920  0.70138945    -0.07540
C989        C  0.77172487  0.79886940  0.72523373    -0.18780
C990        C  0.77305990  0.77711530  0.76120212     0.09610
S991        S  0.64652682  0.73751570  0.69137967    -0.33750
S992        S  0.82324535  0.79344054  0.78735243    -0.33750
H993        H  0.80622407  0.77358050  0.82680992     0.27620
H994        H  0.65272694  0.77646740  0.68282467     0.27610
H995        H  0.67066216  0.70352548  0.76102311     0.18210
H996        H  0.80013502  0.82537162  0.71506940     0.18210
C997        C  0.91789609  0.76865757  0.70577090    -0.07620
C998        C  0.94635470  0.80248416  0.72849777    -0.18750
C999        C  0.98385040  0.83101641  0.70913321     0.09580
C1000       C  0.99397606  0.82471994  0.66648821    -0.07540
C1001       C  0.96265952  0.79386000  0.64205934    -0.18780
C1002       C  0.92447540  0.76613861  0.66119407     0.09610
S1003       S  0.01815649  0.87318499  0.74151169    -0.33750
S1004       S  0.88817107  0.72508589  0.62888427    -0.33750
H1005       H  0.85185226  0.72355598  0.64852504     0.27620
H1006       H  0.03292890  0.90021108  0.70642451     0.27610
H1007       H  0.94098627  0.80497201  0.76266308     0.18210
H1008       H  0.96907038  0.78925928  0.60880499     0.18210
C1009       C  0.00845700  0.75944605  0.92993602    -0.07620
C1010       C  0.02807047  0.80078792  0.92129978    -0.18750
C1011       C  0.05912250  0.82843494  0.94906984     0.09580
C1012       C  0.07094900  0.81480715  0.98677611    -0.07540
C1013       C  0.05204060  0.77341527  0.99457516    -0.18780
C1014       C  0.02182923  0.74590497  0.96648645     0.09610
S1015       S  0.08040853  0.88086624  0.93608520    -0.33750
S1016       S  0.00138764  0.69341253  0.97898763    -0.33750
H1017       H  0.99253213  0.68021536  0.93600878     0.27620
H1018       H  0.08578719  0.89405930  0.97915126     0.27610
H1019       H  0.01748498  0.81182139  0.89419499     0.18210
H1020       H  0.06166599  0.76222147  0.02229345     0.18210
C1021       C  0.64177773  0.44366476  0.41392347    -0.07620
C1022       C  0.60101857  0.43687091  0.42406531    -0.18750
C1023       C  0.56624469  0.40193245  0.41083596     0.09580
C1024       C  0.57305117  0.37314891  0.38732617    -0.07540
C1025       C  0.61403206  0.37741635  0.38369339    -0.18780
C1026       C  0.64868590  0.41270025  0.39691078     0.09610
S1027       S  0.51410842  0.39642887  0.42229626    -0.33750
S1028       S  0.70100606  0.41859614  0.38687256    -0.33750
H1029       H  0.72150191  0.44979006  0.41655708     0.27620
H1030       H  0.52657868  0.43477383  0.43932869     0.27610
H1031       H  0.59654044  0.46093893  0.43797714     0.18210
H1032       H  0.61943913  0.35492483  0.36719392     0.18210
C1033       C  0.83017688  0.45472765  0.32711407    -0.07620
C1034       C  0.82296437  0.43913807  0.36952183    -0.18750
C1035       C  0.81555978  0.40026053  0.37794431     0.09580
C1036       C  0.81540519  0.37633467  0.34334785    -0.07540
C1037       C  0.82004684  0.39068197  0.30072581    -0.18780
C1038       C  0.82773934  0.42985166  0.29218259     0.09610
S1039       S  0.80837376  0.38353335  0.43348653    -0.33750
S1040       S  0.83725648  0.44694033  0.23682572    -0.33750
H1041       H  0.87189488  0.48423078  0.24614627     0.27620
H1042       H  0.78320863  0.34261685  0.42481714     0.27610
H1043       H  0.82363363  0.45754575  0.39664210     0.18210
H1044       H  0.82001206  0.37197403  0.27416835     0.18210
C1045       C  0.66834074  0.66005323  0.44592231    -0.07620
C1046       C  0.66155613  0.64803225  0.48960988    -0.18750
C1047       C  0.63593390  0.65718154  0.51672966     0.09580
C1048       C  0.61634142  0.67908557  0.50046579    -0.07540
C1049       C  0.61898308  0.68713690  0.45576854    -0.18780
C1050       C  0.64513614  0.67825491  0.42840949     0.09610
S1051       S  0.63376595  0.64476637  0.57336547    -0.33750
S1052       S  0.65109507  0.69487329  0.37299898    -0.33750
H1053       H  0.69521371  0.70980057  0.37146975     0.27620
H1054       H  0.59677784  0.64768900  0.58284744     0.27610
H1055       H  0.67774519  0.63269909  0.50347070     0.18210
H1056       H  0.60504468  0.70497140  0.44310211     0.18210
C1057       C  0.76575768  0.69781496  0.19640384    -0.07620
C1058       C  0.72505134  0.67668393  0.17880258    -0.18750
C1059       C  0.70465675  0.69668023  0.16011369     0.09580
C1060       C  0.72507298  0.73884378  0.15974510    -0.07540
C1061       C  0.76771924  0.75945400  0.17294787    -0.18780
C1062       C  0.78809963  0.73947092  0.19121136     0.09610
S1063       S  0.65261190  0.66685775  0.13877117    -0.33750
S1064       S  0.84033036  0.76915362  0.21244491    -0.33750
H1065       H  0.85378064  0.74013541  0.20554603     0.27620
H1066       H  0.65887535  0.69246151  0.10329785     0.27610
H1067       H  0.70786802  0.64438715  0.18234806     0.18210
H1068       H  0.78492695  0.79184371  0.17171025     0.18210
C1069       C  0.98962528  0.69175662  0.25923622    -0.07620
C1070       C  0.02272676  0.72854404  0.27168947    -0.18750
C1071       C  0.05976180  0.74716584  0.24671902     0.09580
C1072       C  0.06352973  0.72864518  0.20834622    -0.07540
C1073       C  0.03172790  0.69066071  0.19752905    -0.18780
C1074       C  0.99500746  0.67175767  0.22287578     0.09610
S1075       S  0.10022438  0.79530991  0.26452108    -0.33750
S1076       S  0.95618596  0.62225856  0.20696757    -0.33750
H1077       H  0.94258277  0.60811676  0.24930892     0.27620
H1078       H  0.13451289  0.79240627  0.24558297     0.27610
H1079       H  0.01903589  0.74358161  0.29996961     0.18210
H1080       H  0.03485657  0.67627114  0.16842655     0.18210
C1081       C  0.93656150  0.71227888  0.49791225    -0.07620
C1082       C  0.93548739  0.69613802  0.53910706    -0.18750
C1083       C  0.97309534  0.70034624  0.55788332     0.09580
C1084       C  0.01082860  0.71546849  0.53272789    -0.07540
C1085       C  0.01030148  0.72847912  0.49051071    -0.18780
C1086       C  0.97604843  0.73271830  0.47622574     0.09610
S1087       S  0.97194675  0.68779260  0.61427221    -0.33750
S1088       S  0.98358510  0.76221072  0.42773583    -0.33750
H1089       H  0.94740116  0.76726939  0.43426546     0.27620
H1090       H  0.00981605  0.68506128  0.61310639     0.27610
H1091       H  0.90561785  0.67969553  0.55613538     0.18210
H1092       H  0.03958741  0.74300280  0.47189585     0.18210
C1093       C  0.83916500  0.54861569  0.56088830    -0.07620
C1094       C  0.80304074  0.52619203  0.58682372    -0.18750
C1095       C  0.80322189  0.52911559  0.63225006     0.09580
C1096       C  0.83988676  0.55697807  0.65423035    -0.07540
C1097       C  0.87727815  0.57716571  0.62890729    -0.18780
C1098       C  0.87745438  0.57231052  0.58306842     0.09610
S1099       S  0.75473819  0.49623453  0.66025758    -0.33750
S1100       S  0.92700601  0.59780328  0.55445488    -0.33750
H1101       H  0.91930158  0.56486084  0.52807434     0.27620
H1102       H  0.77468566  0.49198593  0.69742039     0.27610
H1103       H  0.77351184  0.50654043  0.57132583     0.18210
H1104       H  0.90624048  0.59785216  0.64454964     0.18210
C1105       C  0.73409974  0.55854105  0.05640887    -0.07620
C1106       C  0.76882487  0.57902831  0.08344445    -0.18750
C1107       C  0.76678557  0.57368058  0.12829291     0.09580
C1108       C  0.72807571  0.54736787  0.14975514    -0.07540
C1109       C  0.69221507  0.52759204  0.12305460    -0.18780
C1110       C  0.69498715  0.53229193  0.07692905     0.09610
S1111       S  0.81664035  0.60194397  0.15478834    -0.33750
S1112       S  0.64849747  0.50205668  0.04614025    -0.33750
H1113       H  0.67044531  0.49821542  0.01007246     0.27620
H1114       H  0.79811939  0.60614888  0.19241846     0.27610
H1115       H  0.79909940  0.59980341  0.06930963     0.18210
H1116       H  0.66235697  0.50676291  0.13784218     0.18210
loop_ 
_geom_bond_atom_site_label_1 
_geom_bond_atom_site_label_2 
_geom_bond_distance 
_geom_bond_site_symmetry_2 
_ccdc_geom_bond_type 
N1            N2   1.293       .  A
N1            N7   1.315       .  A
N1          Mn30   2.109       .  S
N2            C9   1.331       .  A
N3            N5   1.312       .  A
N3            N4   1.320       .  A
N3          Mn19   2.158       .  S
N4           C10   1.345       .  A
N5            N6   1.341       .  A
N5          Mn30   2.287       .  S
N6           C10   1.371       .  A
N7            N8   1.335       .  A
N7          Mn19   2.264       .  S
N8            C9   1.370       .  A
C9         C1081   1.470       .  S
C10        C1093   1.529       .  S
N11          N17   1.327       .  A
N11          N12   1.313       .  A
N11         Mn41   2.197       .  S
N12          C20   1.348       .  A
N13          N14   1.316       .  A
N13          N15   1.317       .  A
N13         Mn19   2.171       .  S
N14          C21   1.346       .  A
N15          N16   1.327       .  A
N15         Mn41   2.224       .  S
N16          C21   1.355       .  A
N17          N18   1.319       .  A
N17         Mn19   2.215       .  S
N18          C20   1.347       .  A
Mn19        Cl43   2.531       .  S
C20        C1021   1.446       .  S
C21        C1045   1.488       .  S
N22          N23   1.309       .  A
N22          N28   1.322       .  A
N22         Mn30   2.161       .  S
N23          C31   1.344       .  A
N24          N26   1.311       .  A
N24          N25   1.316       .  A
N24         Mn42   2.154       .  S
N25          C32   1.345       .  A
N26          N27   1.323       .  A
N26         Mn30   2.195       .  S
N27          C32   1.352       .  A
N28          N29   1.324       .  A
N28         Mn42   2.244       .  S
N29          C31   1.358       .  A
Mn30        Cl43   2.536       .  S
C31        C1033   1.468       .  S
C32        C1069   1.469       .  S
N33          N34   1.309       .  A
N33          N39   1.318       .  A
N33         Mn41   2.133       .  S
N34          C44   1.341       .  A
N35          N36   1.322       .  A
N35          N37   1.314       .  A
N35         Mn42   2.178       .  S
N36          C45   1.344       .  A
N37          N38   1.342       .  A
N37         Mn41   2.287       .  S
N38          C45   1.369       .  A
N39          N40   1.328       .  A
N39         Mn42   2.284       .  S
N40          C44   1.360       .  A
Mn41        Cl43   2.554       .  S
Mn42        Cl43   2.508       .  S
C44        C1057   1.466       .  S
C45        C1108   1.532       .  S
N46          N47   1.329       .  A
N46          N52   1.312       .  A
N46         Mn75   2.224       .  S
N47          C54   1.360       .  A
N48          N50   1.323       .  A
N48          N49   1.329       .  A
N48         Mn64   2.256       .  S
N49          C55   1.362       .  A
N50          N51   1.313       .  A
N50         Mn75   2.198       .  S
N51          C55   1.346       .  A
N52          N53   1.309       .  A
N52         Mn64   2.136       .  S
N53          C54   1.337       .  A
C54         C985   1.460       .  S
C55         C952   1.487       .  S
N56          N62   1.318       .  A
N56          N57   1.341       .  A
N56         Mn86   2.296       .  S
N57          C65   1.369       .  A
N58          N59   1.325       .  A
N58          N60   1.319       .  A
N58         Mn64   2.251       .  S
N59          C66   1.358       .  A
N60          N61   1.312       .  A
N60         Mn86   2.163       .  S
N61          C66   1.346       .  A
N62          N63   1.322       .  A
N62         Mn64   2.186       .  S
N63          C65   1.349       .  A
Mn64        Cl88   2.520       .  S
C65        C1096   1.529       .  S
C66         C997   1.467       .  S
N67          N68   1.340       .  A
N67          N73   1.314       .  A
N67         Mn75   2.270       .  S
N68          C76   1.369   1_556  A
N69          N71   1.317       .  A
N69          N70   1.327       .  A
N69         Mn87   2.250       .  S
N70          C77   1.361       .  A
N71          N72   1.316       .  A
N71         Mn75   2.179       .  S
N72          C77   1.348       .  A
N73          N74   1.318       .  A
N73         Mn87   2.193       .  S
N74          C76   1.349   1_556  A
Mn75        Cl88   2.591       .  S
C76        C1105   1.524       .  S
C77         C976   1.480       .  S
N78          N79   1.335       .  A
N78          N84   1.314       .  A
N78         Mn86   2.268       .  S
N79          C89   1.367       .  A
N80          N81   1.323       .  A
N80          N82   1.324       .  A
N80         Mn87   2.232       .  S
N81          C90   1.354       .  A
N82          N83   1.313       .  A
N82         Mn86   2.184       .  S
N83          C90   1.346       .  A
N84          N85   1.316       .  A
N84         Mn87   2.159       .  S
N85          C89   1.342       .  A
Mn86        Cl88   2.591       .  S
Mn87        Cl88   2.509       .  S
C89        C1009   1.494   1_655  S
C90         C961   1.479       .  S
N91          N92   1.323       .  A
N91          N97   1.312       .  A
N91        Mn120   2.202       .  S
N92          C99   1.350       .  A
N93          N95   1.312       .  A
N93          N94   1.319       .  A
N93        Mn109   2.201       .  S
N94         C100   1.351       .  A
N95          N96   1.329       .  A
N95        Mn120   2.213       .  S
N96         C100   1.360       .  A
N97          N98   1.328       .  A
N97        Mn109   2.227       .  S
N98          C99   1.361       .  A
C99        C1012   1.499   1_554  S
C100        C913   1.499   1_565  S
N101        N107   1.314       .  A
N101        N102   1.312       .  A
N101       Mn131   2.178       .  S
N102        C110   1.347       .  A
N103        N104   1.315       .  A
N103        N105   1.318       .  A
N103       Mn109   2.172       .  S
N104        C111   1.345       .  A
N105        N106   1.323       .  A
N105       Mn131   2.216       .  S
N106        C111   1.353       .  A
N107        N108   1.320       .  A
N107       Mn109   2.190       .  S
N108        C110   1.353       .  A
Mn109      Cl133   2.543       .  S
C110        C940   1.471       .  S
C111       C1072   1.463       .  S
N112        N113   1.318       .  A
N112        N118   1.316       .  A
N112       Mn120   2.172       .  S
N113        C121   1.346       .  A
N114        N116   1.317       .  A
N114        N115   1.324       .  A
N114       Mn132   2.208   1_556  S
N115        C122   1.357       .  A
N116        N117   1.309       .  A
N116       Mn120   2.171   1_556  S
N117        C122   1.340       .  A
N118        N119   1.332       .  A
N118       Mn132   2.278       .  S
N119        C121   1.366       .  A
Mn120      Cl133   2.530       .  S
C121        C901   1.496   1_565  S
C122        C925   1.449       .  S
N123        N124   1.318       .  A
N123        N129   1.318       .  A
N123       Mn131   2.185       .  S
N124        C134   1.348       .  A
N125        N126   1.314       .  A
N125        N127   1.316       .  A
N125       Mn132   2.176       .  S
N126        C135   1.348       .  A
N127        N128   1.323       .  A
N127       Mn131   2.214       .  S
N128        C135   1.354       .  A
N129        N130   1.336       .  A
N129       Mn132   2.294       .  S
N130        C134   1.371       .  A
Mn131      Cl133   2.521       .  S
Mn132      Cl133   2.566       .  S
C134        C889   1.520       .  S
C135        C877   1.464       .  S
N136        N137   1.331       .  A
N136        N142   1.311       .  A
N136       Mn165   2.251       .  S
N137        C144   1.369       .  A
N138        N140   1.315       .  A
N138        N139   1.323       .  A
N138       Mn154   2.210       .  S
N139        C145   1.356       .  A
N140        N141   1.310       .  A
N140       Mn165   2.161       .  S
N141        C145   1.347       .  A
N142        N143   1.302       .  A
N142       Mn154   2.107       .  S
N143        C144   1.333       .  A
C144       C1084   1.456       .  S
C145        C937   1.473       .  S
N146        N152   1.311       .  A
N146        N147   1.326       .  A
N146       Mn176   2.237       .  S
N147        C155   1.361       .  A
N148        N149   1.319       .  A
N148        N150   1.307       .  A
N148       Mn154   2.182       .  S
N149        C156   1.353       .  A
N150        N151   1.319       .  A
N150       Mn176   2.181       .  S
N151        C156   1.356       .  A
N152        N153   1.309       .  A
N152       Mn154   2.134       .  S
N153        C155   1.343       .  A
Mn154      Cl178   2.520       .  S
C155        C856   1.458   1_565  S
C156       C1000   1.482   1_455  S
N157        N158   1.334       .  A
N157        N163   1.318       .  A
N157       Mn165   2.275       .  S
N158        C166   1.367       .  A
N159        N161   1.311       .  A
N159        N160   1.322       .  A
N159       Mn177   2.197       .  S
N160        C167   1.352       .  A
N161        N162   1.313       .  A
N161       Mn165   2.159       .  S
N162        C167   1.348       .  A
N163        N164   1.315       .  A
N163       Mn177   2.184       .  S
N164        C166   1.350       .  A
Mn165      Cl178   2.544       .  S
C166        C829   1.509       .  S
C167        C844   1.460       .  S
N168        N169   1.325       .  A
N168        N174   1.314       .  A
N168       Mn176   2.236       .  S
N169        C179   1.363       .  A
N170        N171   1.327       .  A
N170        N172   1.314       .  A
N170       Mn177   2.223       .  S
N171        C180   1.361       .  A
N172        N173   1.304       .  A
N172       Mn176   2.139       .  S
N173        C180   1.340       .  A
N174        N175   1.308       .  A
N174       Mn177   2.148       .  S
N175        C179   1.342       .  A
Mn176      Cl178   2.534       .  S
Mn177      Cl178   2.514       .  S
C179        C928   1.458       .  S
C180        C865   1.466       .  S
N181        N182   1.326       .  A
N181        N187   1.325       .  A
N181       Mn210   2.251       .  S
N182        C189   1.357       .  A
N183        N185   1.310       .  A
N183        N184   1.330       .  A
N183       Mn199   2.221       .  S
N184        C190   1.361       .  A
N185        N186   1.311       .  A
N185       Mn210   2.157       .  S
N186        C190   1.344       .  A
N187        N188   1.329       .  A
N187       Mn199   2.269       .  S
N188        C189   1.363       .  A
C189        C892   1.508       .  S
C190        C796   1.484       .  S
N191        N197   1.319       .  A
N191        N192   1.330       .  A
N191       Mn221   2.266       .  S
N192        C200   1.363       .  A
N193        N194   1.334       .  A
N193        N195   1.314       .  A
N193       Mn199   2.252       .  S
N194        C201   1.367       .  A
N195        N196   1.307       .  A
N195       Mn221   2.130       .  S
N196        C201   1.329       .  A
N197        N198   1.317       .  A
N197       Mn199   2.189       .  S
N198        C200   1.348       .  A
Mn199      Cl223   2.600       .  S
C200        C817   1.485       .  S
C201        C805   1.484   1_554  S
N202        N203   1.333       .  A
N202        N208   1.323       .  A
N202       Mn210   2.275       .  S
N203        C211   1.363       .  A
N204        N206   1.312       .  A
N204        N205   1.332       .  A
N204       Mn222   2.243       .  S
N205        C212   1.363       .  A
N206        N207   1.320       .  A
N206       Mn210   2.188       .  S
N207        C212   1.349       .  A
N208        N209   1.317       .  A
N208       Mn222   2.187       .  S
N209        C211   1.344       .  A
Mn210      Cl223   2.493       .  S
C211        C760   1.507       .  S
C212        C748   1.499       .  S
N213        N214   1.314   1_554  A
N213        N219   1.318       .  A
N213       Mn221   2.208       .  S
N214        C224   1.347       .  A
N215        N216   1.327       .  A
N215        N217   1.316       .  A
N215       Mn222   2.237       .  S
N216        C225   1.358       .  A
N217        N218   1.319       .  A
N217       Mn221   2.153       .  S
N218        C225   1.343       .  A
N219        N220   1.319   1_554  A
N219       Mn222   2.172       .  S
N220        C224   1.352       .  A
Mn221      Cl223   2.471       .  S
Mn222      Cl223   2.597       .  S
C224        C781   1.453       .  S
C225        C769   1.482       .  S
N226        N227   1.316       .  A
N226        N232   1.315       .  A
N226       Mn255   2.185       .  S
N227        C234   1.347       .  A
N228        N230   1.318       .  A
N228        N229   1.302       .  A
N228       Mn244   2.129       .  S
N229        C235   1.332       .  A
N230        N231   1.333       .  A
N230       Mn255   2.262       .  S
N231        C235   1.368       .  A
N232        N233   1.327       .  A
N232       Mn244   2.218       .  S
N233        C234   1.358       .  A
C234        C733   1.484       .  S
C235        C724   1.464       .  S
N236        N242   1.313       .  A
N236        N237   1.318       .  A
N236       Mn266   2.190       .  S
N237        C245   1.356       .  A
N238        N239   1.316       .  A
N238        N240   1.316       .  A
N238       Mn244   2.172       .  S
N239        C246   1.350       .  A
N240        N241   1.319       .  A
N240       Mn266   2.210       .  S
N241        C246   1.353       .  A
N242        N243   1.322       .  A
N242       Mn244   2.195       .  S
N243        C245   1.351       .  A
Mn244      Cl268   2.514       .  S
C245        C793   1.479       .  S
C246        C841   1.468       .  S
N247        N248   1.329       .  A
N247        N253   1.319       .  A
N247       Mn255   2.230       .  S
N248        C256   1.359       .  A
N249        N251   1.316       .  A
N249        N250   1.317       .  A
N249       Mn267   2.183       .  S
N250        C257   1.348       .  A
N251        N252   1.316       .  A
N251       Mn255   2.190       .  S
N252        C257   1.351       .  A
N253        N254   1.310       .  A
N253       Mn267   2.165       .  S
N254        C256   1.335       .  A
Mn255      Cl268   2.564       .  S
C256        C700   1.481       .  S
C257        C784   1.455       .  S
N258        N259   1.317       .  A
N258        N264   1.310       .  A
N258       Mn266   2.191       .  S
N259        C269   1.353       .  A
N260        N261   1.310       .  A
N260        N262   1.313       .  A
N260       Mn267   2.156       .  S
N261        C270   1.343       .  A
N262        N263   1.333       .  A
N262       Mn266   2.254       .  S
N263        C270   1.369       .  A
N264        N265   1.322       .  A
N264       Mn267   2.180       .  S
N265        C269   1.353       .  A
Mn266      Cl268   2.557       .  S
Mn267      Cl268   2.499       .  S
C269        C688   1.479       .  S
C270        C712   1.497       .  S
N271        N272   1.322       .  A
N271        N277   1.316       .  A
N271       Mn300   2.202       .  S
N272        C279   1.353       .  A
N273        N275   1.321       .  A
N273        N274   1.307       .  A
N273       Mn289   2.154       .  S
N274        C280   1.338       .  A
N275        N276   1.332       .  A
N275       Mn300   2.257       .  S
N276        C280   1.362       .  A
N277        N278   1.323       .  A
N277       Mn289   2.205       .  S
N278        C279   1.351       .  A
C279        C709   1.480       .  S
C280        C757   1.473       .  S
N281        N287   1.310       .  A
N281        N282   1.314       .  A
N281       Mn311   2.161       .  S
N282        C290   1.346       .  A
N283        N284   1.309       .  A
N283        N285   1.316       .  A
N283       Mn289   2.159       .  S
N284        C291   1.341       .  A
N285        N286   1.324       .  A
N285       Mn311   2.209       .  S
N286        C291   1.357       .  A
N287        N288   1.320       .  A
N287       Mn289   2.183       .  S
N288        C290   1.352       .  A
Mn289      Cl313   2.511       .  S
C290        C673   1.460       .  S
C291       C1024   1.469       .  S
N292        N293   1.327       .  A
N292        N298   1.319       .  A
N292       Mn300   2.215       .  S
N293        C301   1.357       .  A
N294        N296   1.321       .  A
N294        N295   1.320       .  A
N294       Mn312   2.213       .  S
N295        C302   1.351       .  A
N296        N297   1.322       .  A
N296       Mn300   2.216       .  S
N297        C302   1.353       .  A
N298        N299   1.309       .  A
N298       Mn312   2.172       .  S
N299        C301   1.336       .  A
Mn300      Cl313   2.571       .  S
C301        C853   1.487       .  S
C302        C661   1.470       .  S
N303        N304   1.318       .  A
N303        N309   1.309       .  A
N303       Mn311   2.182       .  S
N304        C314   1.351       .  A
N305        N306   1.321       .  A
N305        N307   1.315       .  A
N305       Mn312   2.214       .  S
N306        C315   1.355       .  A
N307        N308   1.327       .  A
N307       Mn311   2.221       .  S
N308        C315   1.358       .  A
N309        N310   1.324       .  A
N309       Mn312   2.199       .  S
N310        C314   1.355       .  A
Mn311      Cl313   2.554       .  S
Mn312      Cl313   2.504       .  S
C314        C649   1.477       .  S
C315        C916   1.498       .  S
N316        N317   1.318       .  A
N316        N322   1.318       .  A
N316       Mn345   2.216       .  S
N317        C324   1.349       .  A
N318        N320   1.316       .  A
N318        N319   1.315       .  A
N318       Mn334   2.183       .  S
N319        C325   1.343   1_556  A
N320        N321   1.320       .  A
N320       Mn345   2.188       .  S
N321        C325   1.355   1_556  A
N322        N323   1.325       .  A
N322       Mn334   2.212       .  S
N323        C324   1.357       .  A
C324        C949   1.474       .  S
C325        C676   1.456       .  S
N326        N332   1.318       .  A
N326        N327   1.332       .  A
N326       Mn356   2.253       .  S
N327        C335   1.366       .  A
N328        N329   1.328       .  A
N328        N330   1.314       .  A
N328       Mn334   2.231       .  S
N329        C336   1.365       .  A
N330        N331   1.310       .  A
N330       Mn356   2.154       .  S
N331        C336   1.338       .  A
N332        N333   1.309       .  A
N332       Mn334   2.165       .  S
N333        C335   1.338       .  A
Mn334      Cl358   2.526       .  S
C335        C772   1.473       .  S
C336        C697   1.486       .  S
N337        N338   1.339       .  A
N337        N343   1.311       .  A
N337       Mn345   2.280       .  S
N338        C346   1.374       .  A
N339        N341   1.310       .  A
N339        N340   1.321       .  A
N339       Mn357   2.165       .  S
N340        C347   1.353       .  A
N341        N342   1.314       .  A
N341       Mn345   2.185       .  S
N342        C347   1.352       .  A
N343        N344   1.311       .  A
N343       Mn357   2.155       .  S
N344        C346   1.342       .  A
Mn345      Cl358   2.541       .  S
C346        C904   1.508       .  S
C347        C637   1.472       .  S
N348        N349   1.321       .  A
N348        N354   1.314       .  A
N348       Mn356   2.190       .  S
N349        C359   1.351       .  A
N350        N351   1.308       .  A
N350        N352   1.315       .  A
N350       Mn357   2.158       .  S
N351        C360   1.336       .  A
N352        N353   1.323       .  A
N352       Mn356   2.211       .  S
N353        C360   1.361       .  A
N354        N355   1.321       .  A
N354       Mn357   2.208       .  S
N355        C359   1.353       .  A
Mn356      Cl358   2.554       .  S
Mn357      Cl358   2.500       .  S
C359        C664   1.478       .  S
C360        C868   1.466       .  S
N361        N362   1.331       .  A
N361        N367   1.315       .  A
N361       Mn390   2.258       .  S
N362        C369   1.369       .  A
N363        N365   1.313       .  A
N363        N364   1.321       .  A
N363       Mn379   2.194       .  S
N364        C370   1.356       .  A
N365        N366   1.314       .  A
N365       Mn390   2.169       .  S
N366        C370   1.345       .  A
N367        N368   1.307       .  A
N367       Mn379   2.140       .  S
N368        C369   1.338       .  A
C369       C1060   1.486       .  S
C370        C628   1.456       .  S
N371        N377   1.314       .  A
N371        N372   1.326       .  A
N371       Mn401   2.230       .  S
N372        C380   1.356       .  A
N373        N374   1.320       .  A
N373        N375   1.310       .  A
N373       Mn379   2.193       .  S
N374        C381   1.353       .  A
N375        N376   1.323       .  A
N375       Mn401   2.197       .  S
N376        C381   1.356       .  A
N377        N378   1.318       .  A
N377       Mn379   2.175       .  S
N378        C380   1.348       .  A
Mn379      Cl403   2.552       .  S
C380        C592   1.476   1_565  S
C381        C973   1.495       .  S
N382        N383   1.322       .  A
N382        N388   1.318       .  A
N382       Mn390   2.216       .  S
N383        C391   1.352       .  A
N384        N386   1.318       .  A
N384        N385   1.333       .  A
N384       Mn402   2.274       .  S
N385        C392   1.365       .  A
N386        N387   1.319       .  A
N386       Mn390   2.193       .  S
N387        C392   1.351       .  A
N388        N389   1.315       .  A
N388       Mn402   2.183       .  S
N389        C391   1.350       .  A
Mn390      Cl403   2.527       .  S
C391        C880   1.464       .  S
C392        C745   1.515       .  S
N393        N394   1.317       .  A
N393        N399   1.316       .  A
N393       Mn401   2.202   1_556  S
N394        C404   1.355       .  A
N395        N396   1.338       .  A
N395        N397   1.315       .  A
N395       Mn402   2.287       .  S
N396        C405   1.372       .  A
N397        N398   1.311       .  A
N397       Mn401   2.152       .  S
N398        C405   1.340       .  A
N399        N400   1.315       .  A
N399       Mn402   2.182   1_556  S
N400        C404   1.350       .  A
Mn401      Cl403   2.523       .  S
Mn402      Cl403   2.563       .  S
C404        C616   1.473       .  S
C405        C604   1.498   1_564  S
N406        N407   1.314       .  A
N406        N412   1.310       .  A
N406       Mn435   2.161       .  S
N407        C414   1.340       .  A
N408        N410   1.310       .  A
N408        N409   1.311       .  A
N408       Mn424   2.162       .  S
N409        C415   1.343       .  A
N410        N411   1.325       .  A
N410       Mn435   2.201       .  S
N411        C415   1.361       .  A
N412        N413   1.324       .  A
N412       Mn424   2.200       .  S
N413        C414   1.358       .  A
C414        C988   1.467       .  S
C415        C577   1.474       .  S
N416        N422   1.317       .  A
N416        N417   1.324       .  A
N416       Mn446   2.188       .  S
N417        C425   1.356       .  A
N418        N419   1.310       .  A
N418        N420   1.315       .  A
N418       Mn424   2.141       .  S
N419        C426   1.339       .  A
N420        N421   1.330       .  A
N420       Mn446   2.243       .  S
N421        C426   1.360       .  A
N422        N423   1.309       .  A
N422       Mn424   2.190       .  S
N423        C425   1.345       .  A
Mn424      Cl448   2.497       .  S
C425        C625   1.467       .  S
C426       C1048   1.471       .  S
N427        N428   1.313       .  A
N427        N433   1.322       .  A
N427       Mn435   2.160       .  S
N428        C436   1.336       .  A
N429        N431   1.314       .  A
N429        N430   1.318       .  A
N429       Mn447   2.171       .  S
N430        C437   1.353       .  A
N431        N432   1.315       .  A
N431       Mn435   2.195       .  S
N432        C437   1.346       .  A
N433        N434   1.330       .  A
N433       Mn447   2.254       .  S
N434        C436   1.359       .  A
Mn435      Cl448   2.536       .  S
C436        C565   1.477   1_565  S
C437        C613   1.473       .  S
N438        N439   1.313       .  A
N438        N444   1.317       .  A
N438       Mn446   2.167       .  S
N439        C449   1.345       .  A
N440        N441   1.320       .  A
N440        N442   1.324       .  A
N440       Mn447   2.218       .  S
N441        C450   1.351       .  A
N442        N443   1.330       .  A
N442       Mn446   2.256       .  S
N443        C450   1.358       .  A
N444        N445   1.326       .  A
N444       Mn447   2.236       .  S
N445        C449   1.357       .  A
Mn446      Cl448   2.559       .  S
Mn447      Cl448   2.532       .  S
C449        C685   1.464       .  S
C450        C832   1.504       .  S
N451        N452   1.317       .  A
N451        N457   1.320       .  A
N451       Mn480   2.189       .  S
N452        C459   1.347       .  A
N453        N455   1.311       .  A
N453        N454   1.329       .  A
N453       Mn469   2.231       .  S
N454        C460   1.364       .  A
N455        N456   1.303       .  A
N455       Mn480   2.119       .  S
N456        C460   1.338       .  A
N457        N458   1.317       .  A
N457       Mn469   2.199       .  S
N458        C459   1.350       .  A
C459       C1036   1.453       .  S
C460        C553   1.477       .  S
N461        N467   1.316       .  A
N461        N462   1.333       .  A
N461       Mn491   2.266       .  S
N462        C470   1.367       .  A
N463        N464   1.331       .  A
N463        N465   1.312       .  A
N463       Mn469   2.252       .  S
N464        C471   1.368       .  A
N465        N466   1.306       .  A
N465       Mn491   2.122       .  S
N466        C471   1.332       .  A
N467        N468   1.312       .  A
N467       Mn469   2.165       .  S
N468        C470   1.343       .  A
Mn469      Cl493   2.563       .  S
C470        C820   1.487       .  S
C471        C721   1.468       .  S
N472        N473   1.324       .  A
N472        N478   1.315       .  A
N472       Mn480   2.218       .  S
N473        C481   1.353       .  A
N474        N476   1.309       .  A
N474        N475   1.328       .  A
N474       Mn492   2.222       .  S
N475        C482   1.361       .  A
N476        N477   1.313       .  A
N476       Mn480   2.157       .  S
N477        C482   1.346       .  A
N478        N479   1.320       .  A
N478       Mn492   2.193       .  S
N479        C481   1.351       .  A
Mn480      Cl493   2.499       .  S
C481        C589   1.477       .  S
C482        C652   1.483       .  S
N483        N484   1.322       .  A
N483        N489   1.317       .  A
N483       Mn491   2.228       .  S
N484        C494   1.355       .  A
N485        N486   1.315       .  A
N485        N487   1.317       .  A
N485       Mn492   2.204       .  S
N486        C495   1.350       .  A
N487        N488   1.317       .  A
N487       Mn491   2.149       .  S
N488        C495   1.343       .  A
N489        N490   1.319       .  A
N489       Mn492   2.188       .  S
N490        C494   1.353       .  A
Mn491      Cl493   2.501       .  S
Mn492      Cl493   2.562       .  S
C494        C544   1.488       .  S
C495        C580   1.464       .  S
N496        N497   1.321       .  A
N496        N502   1.313       .  A
N496       Mn525   2.188       .  S
N497        C504   1.353       .  A
N498        N500   1.315       .  A
N498        N499   1.304       .  A
N498       Mn514   2.149       .  S
N499        C505   1.327       .  A
N500        N501   1.336       .  A
N500       Mn525   2.278       .  S
N501        C505   1.372       .  A
N502        N503   1.325       .  A
N502       Mn514   2.227       .  S
N503        C504   1.355       .  A
C504        C736   1.486       .  S
C505        C808   1.487       .  S
N506        N512   1.309       .  A
N506        N507   1.323       .  A
N506       Mn536   2.202       .  S
N507        C515   1.362   1_556  A
N508        N509   1.309       .  A
N508        N510   1.314       .  A
N508       Mn514   2.145       .  S
N509        C516   1.344       .  A
N510        N511   1.325       .  A
N510       Mn536   2.227       .  S
N511        C516   1.359       .  A
N512        N513   1.310       .  A
N512       Mn514   2.148       .  S
N513        C515   1.341   1_556  A
Mn514      Cl538   2.449       .  S
C515        C556   1.475       .  S
C516        C964   1.465       .  S
N517        N518   1.332       .  A
N517        N523   1.321       .  A
N517       Mn525   2.270       .  S
N518        C526   1.365       .  A
N519        N521   1.314       .  A
N519        N520   1.323       .  A
N519       Mn537   2.229       .  S
N520        C527   1.358       .  A
N521        N522   1.318       .  A
N521       Mn525   2.179       .  S
N522        C527   1.351       .  A
N523        N524   1.310       .  A
N523       Mn537   2.167       .  S
N524        C526   1.334       .  A
Mn525      Cl538   2.605       .  S
C526        C568   1.480       .  S
C527        C541   1.488       .  S
N528        N529   1.319       .  A
N528        N534   1.313       .  A
N528       Mn536   2.204       .  S
N529        C539   1.356       .  A
N530        N531   1.319       .  A
N530        N532   1.314       .  A
N530       Mn537   2.193       .  S
N531        C540   1.348       .  A
N532        N533   1.331       .  A
N532       Mn536   2.248       .  S
N533        C540   1.365       .  A
N534        N535   1.315       .  A
N534       Mn537   2.156       .  S
N535        C539   1.347       .  A
Mn536      Cl538   2.589       .  S
Mn537      Cl538   2.465       .  S
C539        C640   1.465       .  S
C540        C601   1.495       .  S
C541        C542   1.403       .  A
C541        C546   1.416       .  A
C542        C543   1.401       .  A
C542        H551   1.080       .  S
C543        C544   1.416       .  A
C543        S547   1.802       .  S
C544        C545   1.406       .  A
C545        C546   1.401       .  A
C545        H552   1.084       .  S
C546        S548   1.804       .  S
S547        H550   1.408       .  S
S548        H549   1.408       .  S
C553        C554   1.411       .  A
C553        C558   1.406       .  A
C554        C555   1.388       .  A
C554        H563   1.084       .  S
C555        C556   1.405       .  A
C555        S559   1.799       .  S
C556        C557   1.414       .  A
C557        C558   1.399       .  A
C557        H564   1.084       .  S
C558        S560   1.799       .  S
S559        H562   1.407       .  S
S560        H561   1.407       .  S
C565        C566   1.409   1_545  A
C565        C570   1.402       .  A
C566        C567   1.407   1_565  A
C566        H575   1.084       .  S
C567        C568   1.411       .  A
C567        S571   1.802   1_545  S
C568        C569   1.411       .  A
C569        C570   1.402       .  A
C569        H576   1.084       .  S
C570        S572   1.797       .  S
S571        H574   1.406   1_565  S
S572        H573   1.407       .  S
C577        C578   1.398   1_565  A
C577        C582   1.418       .  A
C578        C579   1.399       .  A
C578        H587   1.084       .  S
C579        C580   1.420       .  A
C579        S583   1.801       .  S
C580        C581   1.390   1_545  A
C581        C582   1.387       .  A
C581        H588   1.085       .  S
C582        S584   1.790       .  S
S583        H586   1.407       .  S
S584        H585   1.408       .  S
C589        C590   1.405       .  A
C589        C594   1.410       .  A
C590        C591   1.405       .  A
C590        H599   1.084       .  S
C591        C592   1.411       .  A
C591        S595   1.803       .  S
C592        C593   1.404       .  A
C593        C594   1.401       .  A
C593        H600   1.084   1_545  S
C594        S596   1.803       .  S
S595        H598   1.405       .  S
S596        H597   1.406       .  S
C601        C602   1.412       .  A
C601        C606   1.411       .  A
C602        C603   1.414       .  A
C602        H611   1.084       .  S
C603        C604   1.413       .  A
C603        S607   1.799   1_545  S
C604        C605   1.411   1_556  A
C605        C606   1.403   1_554  A
C605        H612   1.085       .  S
C606        S608   1.801   1_556  S
S607        H610   1.406       .  S
S608        H609   1.406   1_554  S
C613        C614   1.403       .  A
C613        C618   1.416       .  A
C614        C615   1.392       .  A
C614        H623   1.084       .  S
C615        C616   1.412       .  A
C615        S619   1.803       .  S
C616        C617   1.401       .  A
C617        C618   1.396       .  A
C617        H624   1.082       .  S
C618        S620   1.808       .  S
S619        H622   1.408       .  S
S620        H621   1.407       .  S
C625        C626   1.403       .  A
C625        C630   1.415       .  A
C626        C627   1.401       .  A
C626        H635   1.084       .  S
C627        C628   1.410       .  A
C627        S631   1.803       .  S
C628        C629   1.397       .  A
C629        C630   1.388       .  A
C629        H636   1.085       .  S
C630        S632   1.806       .  S
S631        H634   1.407       .  S
S632        H633   1.408       .  S
C637        C638   1.405       .  A
C637        C642   1.410       .  A
C638        C639   1.394       .  A
C638        H647   1.084       .  S
C639        C640   1.408       .  A
C639        S643   1.803       .  S
C640        C641   1.403       .  A
C641        C642   1.393       .  A
C641        H648   1.084       .  S
C642        S644   1.799       .  S
S643        H646   1.408       .  S
S644        H645   1.402       .  S
C649        C650   1.405       .  A
C649        C654   1.410       .  A
C650        C651   1.406       .  A
C650        H659   1.084       .  S
C651        C652   1.414       .  A
C651        S655   1.798       .  S
C652        C653   1.406       .  A
C653        C654   1.396       .  A
C653        H660   1.084       .  S
C654        S656   1.806       .  S
S655        H658   1.407       .  S
S656        H657   1.407       .  S
C661        C662   1.400       .  A
C661        C666   1.411       .  A
C662        C663   1.401       .  A
C662        H671   1.084       .  S
C663        C664   1.416       .  A
C663        S667   1.802       .  S
C664        C665   1.402       .  A
C665        C666   1.399       .  A
C665        H672   1.083       .  S
C666        S668   1.804       .  S
S667        H670   1.395       .  S
S668        H669   1.405       .  S
C673        C674   1.401       .  A
C673        C678   1.412       .  A
C674        C675   1.391       .  A
C674        H683   1.085       .  S
C675        C676   1.406       .  A
C675        S679   1.802       .  S
C676        C677   1.400       .  A
C677        C678   1.395       .  A
C677        H684   1.084       .  S
C678        S680   1.802       .  S
S679        H682   1.406       .  S
S680        H681   1.407       .  S
C685        C686   1.402       .  A
C685        C690   1.410       .  A
C686        C687   1.401       .  A
C686        H695   1.084       .  S
C687        C688   1.415       .  A
C687        S691   1.799       .  S
C688        C689   1.403       .  A
C689        C690   1.394       .  A
C689        H696   1.084       .  S
C690        S692   1.802       .  S
S691        H694   1.407       .  S
S692        H693   1.405       .  S
C697        C698   1.396       .  A
C697        C702   1.428       .  A
C698        C699   1.399       .  A
C698        H707   1.082       .  S
C699        C700   1.424       .  A
C699        S703   1.813       .  S
C700        C701   1.394       .  A
C701        C702   1.404       .  A
C701        H708   1.083       .  S
C702        S704   1.811       .  S
S703        H706   1.407       .  S
S704        H705   1.407       .  S
C709        C710   1.408       .  A
C709        C714   1.406       .  A
C710        C711   1.410       .  A
C710        H719   1.083       .  S
C711        C712   1.414       .  A
C711        S715   1.795       .  S
C712        C713   1.412       .  A
C713        C714   1.396       .  A
C713        H720   1.084       .  S
C714        S716   1.806       .  S
S715        H718   1.407       .  S
S716        H717   1.403       .  S
C721        C722   1.407       .  A
C721        C726   1.411   1_655  A
C722        C723   1.403   1_655  A
C722        H731   1.084       .  S
C723        C724   1.411       .  A
C723        S727   1.801       .  S
C724        C725   1.405       .  A
C725        C726   1.399       .  A
C725        H732   1.085       .  S
C726        S728   1.801       .  S
S727        H730   1.406       .  S
S728        H729   1.406       .  S
C733        C734   1.402       .  A
C733        C738   1.417       .  A
C734        C735   1.399       .  A
C734        H743   1.085       .  S
C735        C736   1.413   1_455  A
C735        S739   1.793       .  S
C736        C737   1.405       .  A
C737        C738   1.407   1_655  A
C737        H744   1.084       .  S
C738        S740   1.801       .  S
S739        H742   1.406   1_455  S
S740        H741   1.406       .  S
C745        C746   1.410       .  A
C745        C750   1.422       .  A
C746        C747   1.401       .  A
C746        H755   1.083       .  S
C747        C748   1.413       .  A
C747        S751   1.805       .  S
C748        C749   1.409       .  A
C749        C750   1.420       .  A
C749        H756   1.083   1_554  S
C750        S752   1.799   1_554  S
S751        H754   1.407       .  S
S752        H753   1.407       .  S
C757        C758   1.393       .  A
C757        C762   1.412       .  A
C758        C759   1.396       .  A
C758        H767   1.085       .  S
C759        C760   1.424       .  A
C759        S763   1.785       .  S
C760        C761   1.406       .  A
C761        C762   1.411       .  A
C761        H768   1.074       .  S
C762        S764   1.797       .  S
S763        H766   1.408       .  S
S764        H765   1.406       .  S
C769        C770   1.398       .  A
C769        C774   1.419   1_554  A
C770        C771   1.400       .  A
C770        H779   1.084       .  S
C771        C772   1.415   1_554  A
C771        S775   1.800       .  S
C772        C773   1.401       .  A
C773        C774   1.404       .  A
C773        H780   1.084       .  S
C774        S776   1.800       .  S
S775        H778   1.407       .  S
S776        H777   1.407   1_556  S
C781        C782   1.400       .  A
C781        C786   1.408       .  A
C782        C783   1.391       .  A
C782        H791   1.084       .  S
C783        C784   1.406       .  A
C783        S787   1.804       .  S
C784        C785   1.402       .  A
C785        C786   1.395       .  A
C785        H792   1.084       .  S
C786        S788   1.805       .  S
S787        H790   1.407       .  S
S788        H789   1.406       .  S
C793        C794   1.394       .  A
C793        C798   1.419       .  A
C794        C795   1.386       .  A
C794        H803   1.083       .  S
C795        C796   1.414       .  A
C795        S799   1.793       .  S
C796        C797   1.405       .  A
C797        C798   1.411       .  A
C797        H804   1.083       .  S
C798        S800   1.800       .  S
S799        H802   1.408       .  S
S800        H801   1.407       .  S
C805        C806   1.388       .  A
C805        C810   1.429       .  A
C806        C807   1.397   1_455  A
C806        H815   1.084       .  S
C807        C808   1.433       .  A
C807        S811   1.804       .  S
C808        C809   1.394   1_655  A
C809        C810   1.408       .  A
C809        H816   1.083       .  S
C810        S812   1.811   1_556  S
S811        H814   1.401       .  S
S812        H813   1.406   1_554  S
C817        C818   1.408       .  A
C817        C822   1.411       .  A
C818        C819   1.411       .  A
C818        H827   1.084       .  S
C819        C820   1.414   1_455  A
C819        S823   1.801       .  S
C820        C821   1.406       .  A
C821        C822   1.401   1_655  A
C821        H828   1.085       .  S
C822        S824   1.803       .  S
S823        H826   1.405       .  S
S824        H825   1.404       .  S
C829        C830   1.407       .  A
C829        C834   1.419       .  A
C830        C831   1.397       .  A
C830        H839   1.083       .  S
C831        C832   1.418       .  A
C831        S835   1.806       .  S
C832        C833   1.412       .  A
C833        C834   1.419       .  A
C833        H840   1.083       .  S
C834        S836   1.796       .  S
S835        H838   1.404       .  S
S836        H837   1.406       .  S
C841        C842   1.407       .  A
C841        C846   1.411       .  A
C842        C843   1.398       .  A
C842        H851   1.084       .  S
C843        C844   1.405       .  A
C843        S847   1.802       .  S
C844        C845   1.402       .  A
C845        C846   1.392       .  A
C845        H852   1.085       .  S
C846        S848   1.803       .  S
S847        H850   1.406       .  S
S848        H849   1.408       .  S
C853        C854   1.407       .  A
C853        C858   1.428       .  A
C854        C855   1.404       .  A
C854        H863   1.083       .  S
C855        C856   1.409       .  A
C855        S859   1.801       .  S
C856        C857   1.392       .  A
C857        C858   1.389       .  A
C857        H864   1.086       .  S
C858        S860   1.807       .  S
S859        H862   1.407       .  S
S860        H861   1.407       .  S
C865        C866   1.400       .  A
C865        C870   1.408   1_565  A
C866        C867   1.403       .  A
C866        H875   1.081       .  S
C867        C868   1.416   1_565  A
C867        S871   1.805       .  S
C868        C869   1.406       .  A
C869        C870   1.389       .  A
C869        H876   1.084       .  S
C870        S872   1.804       .  S
S871        H874   1.407       .  S
S872        H873   1.408       .  S
C877        C878   1.403       .  A
C877        C882   1.408       .  A
C878        C879   1.400       .  A
C878        H887   1.084       .  S
C879        C880   1.412       .  A
C879        S883   1.803       .  S
C880        C881   1.400       .  A
C881        C882   1.393       .  A
C881        H888   1.084       .  S
C882        S884   1.804       .  S
S883        H886   1.406       .  S
S884        H885   1.407       .  S
C889        C890   1.414       .  A
C889        C894   1.420       .  A
C890        C891   1.409       .  A
C890        H899   1.083       .  S
C891        C892   1.414       .  A
C891        S895   1.803       .  S
C892        C893   1.412       .  A
C893        C894   1.419       .  A
C893        H900   1.083       .  S
C894        S896   1.797       .  S
S895        H898   1.407       .  S
S896        H897   1.407   1_554  S
C901        C902   1.412       .  A
C901        C906   1.410   1_554  A
C902        C903   1.414       .  A
C902        H911   1.084       .  S
C903        C904   1.413   1_554  A
C903        S907   1.793       .  S
C904        C905   1.413       .  A
C905        C906   1.405       .  A
C905        H912   1.084       .  S
C906        S908   1.800   1_545  S
S907        H910   1.406       .  S
S908        H909   1.406       .  S
C913        C914   1.410       .  A
C913        C918   1.417       .  A
C914        C915   1.413       .  A
C914        H923   1.084       .  S
C915        C916   1.418       .  A
C915        S919   1.801       .  S
C916        C917   1.405       .  A
C917        C918   1.400       .  A
C917        H924   1.084       .  S
C918        S920   1.803       .  S
S919        H922   1.407       .  S
S920        H921   1.407       .  S
C925        C926   1.392       .  A
C925        C930   1.413       .  A
C926        C927   1.385       .  A
C926        H935   1.085       .  S
C927        C928   1.409       .  A
C927        S931   1.801       .  S
C928        C929   1.401       .  A
C929        C930   1.404       .  A
C929        H936   1.084       .  S
C930        S932   1.801       .  S
S931        H934   1.407       .  S
S932        H933   1.406       .  S
C937        C938   1.402       .  A
C937        C942   1.411       .  A
C938        C939   1.383       .  A
C938        H947   1.084       .  S
C939        C940   1.415       .  A
C939        S943   1.806       .  S
C940        C941   1.407       .  A
C941        C942   1.402       .  A
C941        H948   1.084       .  S
C942        S944   1.797       .  S
S943        H946   1.407       .  S
S944        H945   1.407       .  S
C949        C950   1.396       .  A
C949        C954   1.413       .  A
C950        C951   1.393       .  A
C950        H959   1.085       .  S
C951        C952   1.419       .  A
C951        S955   1.804       .  S
C952        C953   1.407       .  A
C953        C954   1.410       .  A
C953        H960   1.083       .  S
C954        S956   1.803       .  S
S955        H958   1.406       .  S
S956        H957   1.406       .  S
C961        C962   1.404       .  A
C961        C966   1.419       .  A
C962        C963   1.388       .  A
C962        H971   1.084       .  S
C963        C964   1.409       .  A
C963        S967   1.807       .  S
C964        C965   1.402       .  A
C965        C966   1.403       .  A
C965        H972   1.084       .  S
C966        S968   1.801       .  S
S967        H970   1.407       .  S
S968        H969   1.407       .  S
C973        C974   1.411       .  A
C973        C978   1.418   1_554  A
C974        C975   1.403       .  A
C974        H983   1.083       .  S
C975        C976   1.410   1_554  A
C975        S979   1.800       .  S
C976        C977   1.404       .  A
C977        C978   1.402       .  A
C977        H984   1.084       .  S
C978        S980   1.802       .  S
S979        H982   1.405       .  S
S980        H981   1.407       .  S
C985        C986   1.401       .  A
C985        C990   1.411       .  A
C986        C987   1.400       .  A
C986        H995   1.084       .  S
C987        C988   1.413       .  A
C987        S991   1.804       .  S
C988        C989   1.400       .  A
C989        C990   1.397       .  A
C989        H996   1.084       .  S
C990        S992   1.804       .  S
S991        H994   1.407       .  S
S992        H993   1.407       .  S
C997        C998   1.401       .  A
C997       C1002   1.408       .  A
C998        C999   1.396       .  A
C998       H1007   1.084       .  S
C999       C1000   1.414       .  A
C999       S1003   1.802   1_655  S
C1000      C1001   1.408       .  A
C1001      C1002   1.399       .  A
C1001      H1008   1.084       .  S
C1002      S1004   1.799       .  S
S1003      H1006   1.408       .  S
S1004      H1005   1.406       .  S
C1009      C1010   1.405       .  A
C1009      C1014   1.417       .  A
C1010      C1011   1.414       .  A
C1010      H1019   1.084       .  S
C1011      C1012   1.420       .  A
C1011      S1015   1.802       .  S
C1012      C1013   1.403       .  A
C1013      C1014   1.405       .  A
C1013      H1020   1.084   1_556  S
C1014      S1016   1.804       .  S
S1015      H1018   1.406       .  S
S1016      H1017   1.407   1_455  S
C1021      C1022   1.390       .  A
C1021      C1026   1.406       .  A
C1022      C1023   1.390       .  A
C1022      H1031   1.084       .  S
C1023      C1024   1.421       .  A
C1023      S1027   1.810       .  S
C1024      C1025   1.402       .  A
C1025      C1026   1.395       .  A
C1025      H1032   1.083       .  S
C1026      S1028   1.803       .  S
S1027      H1030   1.407       .  S
S1028      H1029   1.406       .  S
C1033      C1034   1.408       .  A
C1033      C1038   1.410       .  A
C1034      C1035   1.389       .  A
C1034      H1043   1.084       .  S
C1035      C1036   1.400       .  A
C1035      S1039   1.804       .  S
C1036      C1037   1.403       .  A
C1037      C1038   1.398       .  A
C1037      H1044   1.084       .  S
C1038      S1040   1.801       .  S
S1039      H1042   1.406       .  S
S1040      H1041   1.407       .  S
C1045      C1046   1.407       .  A
C1045      C1050   1.414       .  A
C1046      C1047   1.395       .  A
C1046      H1055   1.084       .  S
C1047      C1048   1.407       .  A
C1047      S1051   1.805       .  S
C1048      C1049   1.408       .  A
C1049      C1050   1.409       .  A
C1049      H1056   1.084       .  S
C1050      S1052   1.801       .  S
S1051      H1054   1.407       .  S
S1052      H1053   1.407       .  S
C1057      C1058   1.409       .  A
C1057      C1062   1.401       .  A
C1058      C1059   1.401       .  A
C1058      H1067   1.084       .  S
C1059      C1060   1.408       .  A
C1059      S1063   1.799       .  S
C1060      C1061   1.416       .  A
C1061      C1062   1.395       .  A
C1061      H1068   1.083       .  S
C1062      S1064   1.802       .  S
S1063      H1066   1.407       .  S
S1064      H1065   1.405       .  S
C1069      C1070   1.398   1_655  A
C1069      C1074   1.417       .  A
C1070      C1071   1.398       .  A
C1070      H1079   1.084       .  S
C1071      C1072   1.416       .  A
C1071      S1075   1.806       .  S
C1072      C1073   1.396       .  A
C1073      C1074   1.397   1_455  A
C1073      H1080   1.084       .  S
C1074      S1076   1.804       .  S
S1075      H1078   1.405       .  S
S1076      H1077   1.407       .  S
C1081      C1082   1.405       .  A
C1081      C1086   1.415       .  A
C1082      C1083   1.411       .  A
C1082      H1091   1.083       .  S
C1083      C1084   1.418   1_655  A
C1083      S1087   1.802       .  S
C1084      C1085   1.398       .  A
C1085      C1086   1.385   1_455  A
C1085      H1092   1.086       .  S
C1086      S1088   1.809       .  S
S1087      H1090   1.407   1_655  S
S1088      H1089   1.408       .  S
C1093      C1094   1.409       .  A
C1093      C1098   1.422       .  A
C1094      C1095   1.410       .  A
C1094      H1103   1.084       .  S
C1095      C1096   1.421       .  A
C1095      S1099   1.804       .  S
C1096      C1097   1.417       .  A
C1097      C1098   1.430       .  A
C1097      H1104   1.083       .  S
C1098      S1100   1.795       .  S
S1099      H1102   1.407       .  S
S1100      H1101   1.406       .  S
C1105      C1106   1.402       .  A
C1105      C1110   1.424       .  A
C1106      C1107   1.398       .  A
C1106      H1115   1.084       .  S
C1107      C1108   1.428       .  A
C1107      S1111   1.801       .  S
C1108      C1109   1.419       .  A
C1109      C1110   1.434       .  A
C1109      H1116   1.083       .  S
C1110      S1112   1.799       .  S
S1111      H1114   1.380       .  S
S1112      H1113   1.405       .  S
