geometry optimzed in LAMMPS
_audit_creation_date              2020-11-30 
_audit_creation_method            'lammps2cif' 
_symmetry_space_group_name_H-M    'P1' 
_symmetry_Int_Tables_number       1 
_symmetry_cell_setting            triclinic 
loop_ 
_symmetry_equiv_pos_as_xyz 
  x,y,z 
_cell_length_a                    40.43698754 
_cell_length_b                    41.51318025658338 
_cell_length_c                    39.901155413403686 
_cell_angle_alpha                 91.93614214916626 
_cell_angle_beta                  89.05865530113562 
_cell_angle_gamma                 88.54058216422173 
loop_ 
_atom_site_label 
_atom_site_type_symbol 
_atom_site_fract_x 
_atom_site_fract_y 
_atom_site_fract_z 
_atom_site_charge 
O1          O  0.75935944  0.73533337  0.66896616    -0.81300
O2          O  0.76023204  0.72049959  0.82790018    -0.66000
O3          O  0.73744517  0.72437163  0.73539852    -1.12600
C4          C  0.72757018  0.83713651  0.76330376     1.05500
O5          O  0.71673896  0.75111171  0.84350552    -0.79200
O6          O  0.67624456  0.77938665  0.79782483    -0.66800
Ni7        Ni  0.76600995  0.70302020  0.70212210     1.34900
C8          C  0.66692197  0.77368616  0.76793035     0.84300
O9          O  0.75178350  0.67522647  0.77978817    -0.79800
O10         O  0.77441217  0.66615664  0.72902746    -0.90100
C11         C  0.74089433  0.73249952  0.85071212     0.83900
O12         O  0.80561500  0.72284672  0.71723533    -0.68300
O13         O  0.72084779  0.82818016  0.79280998    -0.87500
C14         C  0.81636729  0.72598368  0.74695766     0.84700
C15         C  0.76465358  0.65628296  0.75721346     1.06300
H16         H  0.76861534  0.77581455  0.78436501     0.38100
O17         O  0.74678220  0.76719434  0.78190805    -1.10200
O18         O  0.68755434  0.76997368  0.74363234    -0.66900
Ni19       Ni  0.73486218  0.77070849  0.73620341     1.26300
O20         O  0.79774627  0.72341303  0.77295467    -0.67100
O21         O  0.73373286  0.81710765  0.73877372    -0.79400
C22         C  0.73779365  0.75775576  0.66516482     0.84100
O23         O  0.72357623  0.77245209  0.69000587    -0.66500
Ni24       Ni  0.71914743  0.78838677  0.81591469     1.27400
Ni25       Ni  0.74996336  0.72132939  0.78133555     1.26100
H26         H  0.71559672  0.71579514  0.73296924     0.38600
O27         O  0.32343329  0.75150984  0.78892381    -0.81300
O28         O  0.17094216  0.73444280  0.77788841    -0.66000
O29         O  0.26419128  0.73598050  0.75660595    -1.12600
C30         C  0.23980452  0.84867739  0.74305696     1.05500
O31         O  0.16173604  0.76011738  0.73122668    -0.79200
O32         O  0.20945508  0.78511515  0.69187298    -0.66800
Ni33       Ni  0.29621694  0.71428750  0.78304397     1.34900
C34         C  0.23944997  0.77898344  0.68329367     0.84300
O35         O  0.21888061  0.68658420  0.77193461    -0.79800
O36         O  0.27295305  0.67445791  0.77822620    -0.90100
C37         C  0.15087130  0.74524581  0.75638858     0.83900
O38         O  0.27647905  0.72398271  0.82633136    -0.68300
O39         O  0.21104666  0.83885531  0.73532882    -0.87500
C40         C  0.24811222  0.73405540  0.83688200     0.84700
C41         C  0.24304541  0.66616633  0.77432135     1.06300
H42         H  0.21504617  0.79001328  0.78538593     0.38100
O43         O  0.21905262  0.77951630  0.76365991    -1.10200
O44         O  0.26265513  0.77803018  0.70457382    -0.66900
Ni45       Ni  0.26524163  0.78232968  0.75342637     1.26300
O46         O  0.22400019  0.73913208  0.81716528    -0.67100
O47         O  0.26336865  0.82916995  0.75104714    -0.79400
C48         C  0.33328701  0.76961430  0.76593148     0.84100
O49         O  0.31258892  0.78262754  0.74636266    -0.66500
Ni50       Ni  0.18819189  0.79833924  0.73379655     1.27400
Ni51       Ni  0.21812775  0.73351761  0.76869009     1.26100
H52         H  0.26674466  0.72647341  0.73424283     0.38600
C53         C  0.74171021  0.79866656  0.53232190     0.79800
N54         N  0.76825227  0.81695116  0.53833699    -0.78500
C55         C  0.78870245  0.82552264  0.51344460     0.82200
N56         N  0.78147876  0.81679898  0.48146114    -0.78500
C57         C  0.75428259  0.79939718  0.47445441     0.82300
N58         N  0.73484749  0.78908069  0.50014254    -0.80200
C59         C  0.01148409  0.76346186  0.74967124     0.79800
N60         N  0.98175099  0.75100043  0.75897634    -0.78500
C61         C  0.95294415  0.76458236  0.74752190     0.82200
N62         N  0.95448386  0.78908903  0.72587695    -0.78500
C63         C  0.98378438  0.80115081  0.71604447     0.82300
N64         N  0.01198263  0.78808785  0.72824835    -0.80200
C65         C  0.02588412  0.73265634  0.29114015     0.79800
N66         N  0.99874092  0.72070977  0.27595988    -0.78500
C67         C  0.96824829  0.73068073  0.28745234     0.82200
N68         N  0.96509059  0.75247992  0.31347095    -0.78500
C69         C  0.99203359  0.76482406  0.32831616     0.82300
N70         N  0.02231018  0.75436799  0.31726492    -0.80200
O71         O  0.98970325  0.85309243  0.47027899    -0.74900
O72         O  0.99299317  0.86788940  0.56632540    -0.74900
O73         O  0.03835107  0.85355371  0.51619352    -0.75000
O74         O  0.94456034  0.86802468  0.51976130    -0.75000
O75         O  0.93824075  0.81559770  0.52816139    -0.74900
O76         O  0.03125530  0.80106652  0.52322815    -0.74900
O77         O  0.98686670  0.81511295  0.57272839    -0.74900
O78         O  0.98218515  0.80087133  0.47875367    -0.75000
Ni79       Ni  0.99171538  0.86265095  0.51791274     1.25400
Ni80       Ni  0.98444252  0.80638732  0.52596918     1.25400
C81         C  0.98474187  0.82431138  0.45904336     0.87300
C82         C  0.99025169  0.84354816  0.58511216     0.87200
C83         C  0.05013445  0.82484677  0.51867859     0.87300
C84         C  0.92608698  0.84398676  0.52449554     0.87400
C85         C  0.23712496  0.77782032  0.48125496     0.79800
N86         N  0.25402626  0.77239661  0.51045851    -0.78500
C87         C  0.23810651  0.77859205  0.54093892     0.82200
N88         N  0.20636416  0.78935910  0.54149625    -0.78500
C89         C  0.18955015  0.79381902  0.51316669     0.82300
N90         N  0.20502359  0.78825555  0.48316208    -0.80200
O91         O  0.17393915  0.75082417  0.29277644    -0.81300
O92         O  0.32123983  0.76505524  0.27639463    -0.66000
O93         O  0.23018653  0.76658574  0.25708947    -1.12600
C94         C  0.25017847  0.65448787  0.23765195     1.05500
O95         O  0.33193396  0.73818265  0.22843086    -0.79200
O96         O  0.28447097  0.71477404  0.18878465    -0.66800
Ni97       Ni  0.19933916  0.78880983  0.28625311     1.34900
C98         C  0.25519850  0.72271929  0.18067975     0.84300
O99         O  0.27618685  0.81355287  0.27336755    -0.79800
O100        O  0.22263097  0.82814735  0.28020977    -0.90100
C101        C  0.34122483  0.75543394  0.25330692     0.83900
O102        O  0.21949511  0.78277678  0.32900412    -0.68300
O103        O  0.27953143  0.66237781  0.22983837    -0.87500
C104        C  0.24731317  0.77132571  0.33780660     0.84700
C105        C  0.25299263  0.83510242  0.27548342     1.06300
H106        H  0.27628020  0.71121498  0.28203222     0.38100
O107        O  0.27329766  0.72155440  0.26091432    -1.10200
O108        O  0.23150772  0.72511870  0.20227389    -0.66900
Ni109      Ni  0.22750557  0.72090108  0.25088142     1.26300
O110        O  0.26994205  0.76256314  0.31654643    -0.67100
O111        O  0.22686862  0.67465745  0.24592661    -0.79400
C112        C  0.16280278  0.73234032  0.26969806     0.84100
O113        O  0.18092526  0.72254934  0.24501615    -0.66500
Ni114      Ni  0.30404671  0.70140737  0.22970053     1.27400
Ni115      Ni  0.27544073  0.76712447  0.26821491     1.26100
H116        H  0.22809230  0.77628111  0.23552435     0.38600
O117        O  0.66191257  0.74089543  0.23838592    -0.81300
O118        O  0.81515000  0.71659452  0.24260059    -0.66000
O119        O  0.72367847  0.72451211  0.26470424    -1.12600
C120        C  0.74576582  0.83728090  0.26484175     1.05500
O121        O  0.82695542  0.75195077  0.28315507    -0.79200
O122        O  0.78286049  0.78926117  0.31869577    -0.66800
Ni123      Ni  0.69252875  0.70434514  0.23584088     1.34900
C124        C  0.75619482  0.77937132  0.33142566     0.84300
O125        O  0.76863938  0.67389995  0.25412192    -0.79800
O126        O  0.71897125  0.66476542  0.23195745    -0.90100
C127        C  0.83555524  0.72929490  0.26231783     0.83900
O128        O  0.70999533  0.71928724  0.19425290    -0.68300
O129        O  0.77647517  0.82945109  0.26577071    -0.87500
C130        C  0.74000128  0.71978675  0.18435780     0.84700
C131        C  0.74728134  0.65503059  0.24192744     1.06300
H132        H  0.76819558  0.77197621  0.22838685     0.38100
O133        O  0.76745981  0.76562656  0.25151039    -1.10200
O134        O  0.73214805  0.77000406  0.31383178    -0.66900
Ni135      Ni  0.72293376  0.77047040  0.26657488     1.26300
O136        O  0.76366446  0.71706795  0.20468687    -0.67100
O137        O  0.72281771  0.81683632  0.26702460    -0.79400
C138        C  0.65566773  0.76174030  0.26201903     0.84100
O139        O  0.67820837  0.77268277  0.28028806    -0.66500
Ni140      Ni  0.80034453  0.78976656  0.27396433     1.27400
Ni141      Ni  0.76909755  0.71964385  0.25262511     1.26100
H142        H  0.72044923  0.71645043  0.28692973     0.38600
C143        C  0.77378140  0.69583463  0.98540851     0.79800
N144        N  0.76207988  0.71073170  0.01458685    -0.78500
C145        C  0.77458826  0.70168697  0.04462869     0.82200
N146        N  0.79816730  0.67793331  0.04514698    -0.78500
C147        C  0.81002162  0.66341500  0.01647115     0.82300
N148        N  0.79770814  0.67246194  0.98688182    -0.80200
C149        C  0.80128333  0.52567242  0.78790672     0.79800
N150        N  0.78681857  0.49720022  0.77966523    -0.78500
C151        C  0.80180108  0.46884282  0.78808104     0.82200
N152        N  0.83089205  0.46952556  0.80455547    -0.78500
C153        C  0.84584518  0.49759197  0.81208526     0.82300
N154        N  0.83064671  0.52556103  0.80380026    -0.80200
C155        C  0.78344786  0.27717892  0.96735906     0.79800
N156        N  0.81205543  0.29331677  0.96780820    -0.78500
C157        C  0.82533815  0.30446645  0.99669467     0.82200
N158        N  0.80899955  0.29941427  0.02600042    -0.78500
C159        C  0.78004675  0.28320117  0.02665867     0.82300
N160        N  0.76698806  0.27257177  0.99692693    -0.80200
O161        O  0.84395152  0.46748994  0.03721104    -0.74900
O162        O  0.86305369  0.48159151  0.94562599    -0.74900
O163        O  0.86132198  0.42989013  0.98390350    -0.75000
O164        O  0.84489865  0.51904468  0.99909189    -0.75000
O165        O  0.89817333  0.52660321  0.01000965    -0.74900
O166        O  0.91436653  0.43481196  0.99752178    -0.74900
O167        O  0.91667515  0.48682241  0.95677034    -0.74900
O168        O  0.89677641  0.47519602  0.04986603    -0.75000
Ni169      Ni  0.85157912  0.47425441  0.99092653     1.25400
Ni170      Ni  0.90862799  0.48105915  0.00383051     1.25400
C171        C  0.86693401  0.46973977  0.05875413     0.87300
C172        C  0.89273778  0.48670952  0.93616678     0.87200
C173        C  0.88978758  0.41740980  0.98932961     0.87300
C174        C  0.86827183  0.53740115  0.00782795     0.87400
C175        C  0.77565689  0.51808585  0.22229954     0.79800
N176        N  0.76159518  0.49388182  0.23943579    -0.78500
C177        C  0.76902374  0.46261960  0.23026149     0.82200
N178        N  0.79014438  0.45565352  0.20427878    -0.78500
C179        C  0.80399912  0.47935392  0.18702774     0.82300
N180        N  0.79679840  0.51047643  0.19622584    -0.80200
O181        O  0.72149732  0.16718235  0.23878929    -0.81300
O182        O  0.72714228  0.31520638  0.24362955    -0.66000
O183        O  0.75144754  0.22632816  0.22970279    -1.12600
C184        C  0.75981188  0.23166617  0.34899031     1.05500
O185        O  0.77202625  0.32038809  0.27369576    -0.79200
O186        O  0.81164755  0.27306091  0.29866040    -0.66800
Ni187      Ni  0.72492330  0.19812081  0.20367932     1.34900
C188        C  0.82350361  0.24703646  0.28504976     0.84300
O189        O  0.73546978  0.27654899  0.18730927    -0.79800
O190        O  0.72849889  0.22632185  0.16613478    -0.90100
C191        C  0.74776311  0.33311262  0.25847001     0.83900
O192        O  0.68128845  0.21471440  0.21613334    -0.68300
O193        O  0.76315970  0.26200474  0.34597192    -0.87500
C194        C  0.67004149  0.24113274  0.22942309     0.84700
C195        C  0.73401773  0.25628838  0.16242503     1.06300
H196        H  0.71997967  0.26230806  0.29200804     0.38100
O197        O  0.74182687  0.26206647  0.28180689    -1.10200
O198        O  0.80427441  0.22525922  0.27368151    -0.66900
Ni199      Ni  0.75619678  0.21831424  0.27632381     1.26300
O200        O  0.68930913  0.26388410  0.23804905    -0.67100
O201        O  0.75851514  0.21198344  0.32375483    -0.79400
C202        C  0.74562223  0.15557336  0.25512654     0.84100
O203        O  0.76695543  0.17370037  0.26828587    -0.66500
Ni204      Ni  0.76756125  0.29005258  0.30877833     1.27400
Ni205      Ni  0.73741970  0.27035454  0.23512141     1.26100
H206        H  0.77318685  0.22576511  0.21923617     0.38600
O207        O  0.65780081  0.26644803  0.78003803    -0.81300
O208        O  0.81436522  0.26754530  0.76602206    -0.66000
O209        O  0.72139963  0.27264545  0.75175509    -1.12600
C210        C  0.73681458  0.15734266  0.74707165     1.05500
O211        O  0.81623887  0.23591828  0.72094966    -0.79200
O212        O  0.77033243  0.19940803  0.69175387    -0.66800
Ni213      Ni  0.69309355  0.29751465  0.78203036     1.34900
C214        C  0.74413983  0.21303529  0.68170406     0.84300
O215        O  0.77103541  0.31662210  0.75921041    -0.79800
O216        O  0.72403737  0.33285450  0.78544367    -0.90100
C217        C  0.83099474  0.25280454  0.74275501     0.83900
O218        O  0.70947390  0.27857213  0.82180419    -0.68300
O219        O  0.76787957  0.16224907  0.74568642    -0.87500
C220        C  0.73924463  0.27364059  0.83036887     0.84700
C221        C  0.75266672  0.33858319  0.77309464     1.06300
H222        H  0.76379103  0.21875034  0.78328714     0.38100
O223        O  0.76215998  0.22593022  0.76057418    -1.10200
O224        O  0.72352783  0.22779879  0.70139485    -0.66900
Ni225      Ni  0.71725453  0.22673884  0.74945720     1.26300
O226        O  0.76324538  0.27341092  0.80905734    -0.67100
O227        O  0.71487551  0.18019471  0.74706336    -0.79400
C228        C  0.65035947  0.24468060  0.75817337     0.84100
O229        O  0.67204808  0.22957625  0.74032030    -0.66500
Ni230      Ni  0.79176365  0.19948130  0.73397266     1.27400
Ni231      Ni  0.76748200  0.27131121  0.76038706     1.26100
H232        H  0.71836250  0.28120021  0.72976078     0.38600
C233        C  0.70104504  0.96837036  0.73086687     0.79800
N234        N  0.67178995  0.96705874  0.71490193    -0.78500
C235        C  0.65500925  0.99440297  0.70748416     0.82200
N236        N  0.66726131  0.02325318  0.71675193    -0.78500
C237        C  0.69644807  0.02510843  0.73278884     0.82300
N238        N  0.71340224  0.99749031  0.74024055    -0.80200
C239        C  0.47030752  0.79596004  0.73421800     0.79800
N240        N  0.47116623  0.81253291  0.70570470    -0.78500
C241        C  0.49980219  0.81958052  0.69007170     0.82200
N242        N  0.52870010  0.80891326  0.70310230    -0.78500
C243        C  0.52895284  0.79160202  0.73154771     0.82300
N244        N  0.49951196  0.78513135  0.74739187    -0.80200
C245        C  0.25605170  0.98558927  0.71974621     0.79800
N246        N  0.24547343  0.01410314  0.73546832    -0.78500
C247        C  0.25245544  0.04288366  0.72106514     0.82200
N248        N  0.27033944  0.04262155  0.69191305    -0.78500
C249        C  0.28125633  0.01464909  0.67654746     0.82300
N250        N  0.27392843  0.98652448  0.69082240    -0.80200
O251        O  0.49901493  0.98803829  0.68014991    -0.74900
O252        O  0.40988154  0.98873579  0.65254413    -0.74900
O253        O  0.45838380  0.94312112  0.65732772    -0.75000
O254        O  0.45109824  0.03360961  0.67538335    -0.75000
O255        O  0.46842304  0.04275567  0.62325343    -0.74900
O256        O  0.47507694  0.95117606  0.60470266    -0.74900
O257        O  0.42542727  0.99849052  0.59994564    -0.74900
O258        O  0.51605911  0.99629447  0.62780107    -0.75000
Ni259      Ni  0.45384883  0.98800755  0.66802743     1.25400
Ni260      Ni  0.47160030  0.99739243  0.61179989     1.25400
C261        C  0.52228520  0.99148778  0.65866754     0.87300
C262        C  0.40282129  0.99527781  0.62242304     0.87200
C263        C  0.47006572  0.93239122  0.62903485     0.87300
C264        C  0.45960775  0.05306112  0.65279413     0.87400
C265        C  0.45639976  0.22190184  0.75178147     0.79800
N266        N  0.48808682  0.22960982  0.75758677    -0.78500
C267        C  0.51314679  0.21135255  0.74341467     0.82200
N268        N  0.50604327  0.18546203  0.72321163    -0.78500
C269        C  0.47423478  0.17754065  0.71716108     0.82300
N270        N  0.44955320  0.19604706  0.73165871    -0.80200
O271        O  0.31802550  0.23131966  0.77438836    -0.81300
O272        O  0.17394025  0.23597114  0.74571405    -0.66000
O273        O  0.26378596  0.25822085  0.74559647    -1.12600
C274        C  0.23940224  0.28927897  0.85949895     1.05500
O275        O  0.15987883  0.28324490  0.76988432    -0.79200
O276        O  0.20250271  0.32750368  0.79596996    -0.66800
Ni277      Ni  0.29733993  0.22790916  0.73165367     1.34900
C278        C  0.23029584  0.33659824  0.78480881     0.84300
O279        O  0.22232520  0.23343360  0.69725768    -0.79800
O280        O  0.27726865  0.22329239  0.68866919    -0.90100
C281        C  0.15207714  0.25600390  0.75717851     0.83900
O282        O  0.27910773  0.18783389  0.74382857    -0.68300
O283        O  0.20880989  0.29041779  0.85197314    -0.87500
C284        C  0.24993717  0.17932686  0.75052903     0.84700
C285        C  0.24737725  0.22451963  0.67865118     1.06300
H286        H  0.21871933  0.23882177  0.80416497     0.38100
O287        O  0.21951380  0.25813623  0.79135043    -1.10200
O288        O  0.25472410  0.31662764  0.78015732    -0.66900
Ni289      Ni  0.26386619  0.27195661  0.79174662     1.26300
O290        O  0.22596185  0.19983252  0.75424960    -0.67100
O291        O  0.26289398  0.28392783  0.83827293    -0.79400
C292        C  0.32919262  0.25814113  0.78443271     0.84100
O293        O  0.30957209  0.28197186  0.79018699    -0.66500
Ni294      Ni  0.18576649  0.28677134  0.80992106     1.27400
Ni295      Ni  0.21944969  0.24545728  0.74443172     1.26100
H296        H  0.26592338  0.27682306  0.73187389     0.38600
C297        C  0.24949975  0.71643627  0.97791747     0.79800
N298        N  0.24319128  0.73111534  0.00891399    -0.78500
C299        C  0.25158324  0.71509471  0.03733400     0.82200
N300        N  0.26640001  0.68549712  0.03425952    -0.78500
C301        C  0.27322909  0.67134310  0.00387743     0.82300
N302        N  0.26444911  0.68679771  0.97594796    -0.80200
C303        C  0.25896458  0.53001720  0.78294898     0.79800
N304        N  0.28731554  0.53091515  0.80059043    -0.78500
C305        C  0.30382914  0.50368002  0.80880320     0.82200
N306        N  0.29150305  0.47487797  0.79889892    -0.78500
C307        C  0.26334462  0.47269535  0.78100790     0.82300
N308        N  0.24642806  0.50063606  0.77327241    -0.80200
C309        C  0.30217086  0.29646974  0.98711200     0.79800
N310        N  0.29289405  0.28420633  0.01691105    -0.78500
C311        C  0.31292529  0.28718237  0.04390966     0.82200
N312        N  0.34187098  0.30284589  0.04115473    -0.78500
C313        C  0.35104715  0.31565873  0.01176304     0.82300
N314        N  0.33103166  0.31221917  0.98503876    -0.80200
O315        O  0.31696920  0.51970270  0.98682052    -0.74900
O316        O  0.35790747  0.43594208  0.98445115    -0.74900
O317        O  0.33066571  0.47506109  0.03243104    -0.75000
O318        O  0.34357983  0.48004701  0.93872164    -0.75000
O319        O  0.39285481  0.50215167  0.94591777    -0.74900
O320        O  0.37961448  0.49701869  0.04166449    -0.74900
O321        O  0.40734576  0.45717688  0.99337358    -0.74900
O322        O  0.36614987  0.54143075  0.99527638    -0.75000
Ni323      Ni  0.33566832  0.47690173  0.98523825     1.25400
Ni324      Ni  0.38843636  0.50018567  0.99421838     1.25400
C325        C  0.33484371  0.54440552  0.99147049     0.87300
C326        C  0.38889324  0.43274046  0.98990148     0.87200
C327        C  0.35260968  0.48521328  0.05257856     0.87300
C328        C  0.36956182  0.49253858  0.92682176     0.87400
C329        C  0.26332921  0.51906945  0.22244090     0.79800
N330        N  0.28378314  0.51536083  0.19522637    -0.78500
C331        C  0.29568955  0.48585634  0.18483491     0.82200
N332        N  0.28700568  0.45987000  0.20219126    -0.78500
C333        C  0.26621178  0.46300455  0.22915411     0.82300
N334        N  0.25395198  0.49269028  0.23930194    -0.80200
C335        C  0.52435625  0.81494729  0.25956730     0.79800
N336        N  0.49540886  0.79943729  0.26186603    -0.78500
C337        C  0.46721143  0.81383016  0.25143123     0.82200
N338        N  0.46786940  0.84381111  0.23923042    -0.78500
C339        C  0.49664240  0.85965175  0.23716634     0.82300
N340        N  0.52484294  0.84486819  0.24705591    -0.80200
C341        C  0.71123463  0.97004020  0.23198655     0.79800
N342        N  0.68780015  0.97720055  0.20890499    -0.78500
C343        C  0.68189213  0.00806106  0.19961806     0.82200
N344        N  0.70000141  0.03158066  0.21353838    -0.78500
C345        C  0.72301180  0.02545245  0.23667253     0.82300
N346        N  0.72860733  0.99469565  0.24623957    -0.80200
C347        C  0.25978177  0.02544549  0.24710732     0.79800
N348        N  0.28341188  0.03061427  0.22387472    -0.78500
C349        C  0.30320003  0.00639571  0.21107744     0.82200
N350        N  0.29856283  0.97590204  0.22150282    -0.78500
C351        C  0.27409373  0.96990070  0.24439228     0.82300
N352        N  0.25545345  0.99515891  0.25792875    -0.80200
O353        O  0.49705973  0.00620016  0.19382615    -0.74900
O354        O  0.49326376  0.09005532  0.15975422    -0.74900
O355        O  0.44836078  0.04843798  0.18136526    -0.75000
O356        O  0.54173219  0.04709781  0.17230531    -0.75000
O357        O  0.53882084  0.02465082  0.12083542    -0.74900
O358        O  0.44354916  0.02855284  0.12918674    -0.74900
O359        O  0.49066427  0.07013513  0.10718226    -0.74900
O360        O  0.49170440  0.98489000  0.14210326    -0.75000
Ni361      Ni  0.49518915  0.04882233  0.17844953     1.25400
Ni362      Ni  0.49102447  0.02647639  0.12269532     1.25400
C363        C  0.49475110  0.98181851  0.17375252     0.87300
C364        C  0.49184055  0.09409793  0.12823241     0.87200
C365        C  0.43047752  0.03783392  0.15755025     0.87300
C366        C  0.55573665  0.03415543  0.14607373     0.87400
C367        C  0.52682913  0.23956790  0.21965596     0.79800
N368        N  0.52546702  0.22273023  0.19005253    -0.78500
C369        C  0.49650822  0.21399052  0.17642192     0.82200
N370        N  0.46792698  0.22265242  0.19302244    -0.78500
C371        C  0.46775038  0.23958683  0.22273953     0.82300
N372        N  0.49761703  0.24770335  0.23675288    -0.80200
C373        C  0.76733239  0.18890739  0.48504401     0.79800
N374        N  0.79627986  0.17193300  0.48747522    -0.78500
C375        C  0.80744743  0.16306419  0.51764166     0.82200
N376        N  0.78951783  0.17131324  0.54559193    -0.78500
C377        C  0.76034561  0.18783805  0.54380698     0.82300
N378        N  0.74934910  0.19740776  0.51345759    -0.80200
C379        C  0.96478580  0.21136134  0.73355530     0.79800
N380        N  0.96633233  0.18444816  0.71320288    -0.78500
C381        C  0.99561295  0.16891833  0.70587504     0.82200
N382        N  0.02361823  0.18147137  0.71868515    -0.78500
C383        C  0.02238645  0.20868521  0.73852916     0.82300
N384        N  0.99293031  0.22380648  0.74580780    -0.80200
C385        C  0.96572169  0.21304442  0.29462330     0.79800
N386        N  0.96663072  0.18886459  0.31669907    -0.78500
C387        C  0.99559209  0.17692251  0.32851046     0.82200
N388        N  0.02436552  0.18953758  0.31781136    -0.78500
C389        C  0.02493586  0.21362603  0.29555827     0.82300
N390        N  0.99519830  0.22613773  0.28440177    -0.80200
O391        O  0.99869431  0.08853140  0.46644913    -0.74900
O392        O  0.00195299  0.08139773  0.56296215    -0.74900
O393        O  0.95413552  0.09379622  0.51795790    -0.75000
O394        O  0.04734436  0.07494067  0.51147166    -0.75000
O395        O  0.05673654  0.12771850  0.51580508    -0.74900
O396        O  0.96431475  0.14615187  0.52465031    -0.74900
O397        O  0.01329346  0.13373948  0.56711798    -0.74900
O398        O  0.00767347  0.14119305  0.47312071    -0.75000
Ni399      Ni  0.00030359  0.08260662  0.51446756     1.25400
Ni400      Ni  0.01094630  0.13893045  0.52031852     1.25400
C401        C  0.00144938  0.11667326  0.45436355     0.87300
C402        C  0.00780387  0.10697145  0.58068539     0.87200
C403        C  0.94398188  0.12307879  0.52272745     0.87300
C404        C  0.06721907  0.09842814  0.51271927     0.87400
C405        C  0.21536761  0.18185763  0.48603149     0.79800
N406        N  0.22504730  0.19492167  0.51583773    -0.78500
C407        C  0.21964402  0.17893779  0.54452845     0.82200
N408        N  0.20360362  0.15055874  0.54336059    -0.78500
C409        C  0.19390079  0.13724589  0.51373054     0.82300
N410        N  0.20010221  0.15322003  0.48539767    -0.80200
O411        O  0.21556506  0.32277272  0.27564184    -0.81300
O412        O  0.22188785  0.17674960  0.28137617    -0.66000
O413        O  0.24606005  0.26434903  0.29171476    -1.12600
C414        C  0.27874901  0.24922691  0.17762968     1.05500
O415        O  0.27217441  0.16575585  0.26107637    -0.79200
O416        O  0.31726133  0.21039737  0.24224048    -0.66800
Ni417      Ni  0.21645094  0.29515966  0.31361328     1.34900
C418        C  0.32623345  0.23896042  0.24919563     0.84300
O419        O  0.22167468  0.21846452  0.33419535    -0.79800
O420        O  0.21737401  0.27023676  0.35334974    -0.90100
C421        C  0.24442163  0.15646110  0.27221832     0.83900
O422        O  0.17377466  0.27784854  0.30217167    -0.68300
O423        O  0.28326462  0.21970313  0.18497765    -0.87500
C424        C  0.16449485  0.25164128  0.28816325     0.84700
C425        C  0.21837481  0.23991151  0.35773394     1.06300
H426        H  0.22591768  0.22355895  0.22804996     0.38100
O427        O  0.24535286  0.22492255  0.24175293    -1.10200
O428        O  0.30511351  0.26250298  0.25266378    -0.66900
Ni429      Ni  0.25723122  0.26888221  0.24534782     1.26300
O430        O  0.18575873  0.22994375  0.27793485    -0.67100
O431        O  0.26717942  0.27113057  0.19828849    -0.79400
C432        C  0.24201695  0.33327671  0.26263018     0.84100
O433        O  0.26477502  0.31388029  0.25145468    -0.66500
Ni434      Ni  0.27707036  0.19408398  0.22383003     1.27400
Ni435      Ni  0.23242397  0.22100854  0.28762706     1.26100
H436        H  0.26632320  0.26442704  0.30422117     0.38600
C437        C  0.24232572  0.23331321  0.41370445    -0.20800
C438        C  0.21583969  0.22856901  0.39195652    -0.07300
C439        C  0.18869192  0.21051070  0.40200298     0.13500
C440        C  0.18895604  0.19682552  0.43346876    -0.20800
C441        C  0.21605242  0.20012746  0.45490535    -0.07300
C442        C  0.24294197  0.21901082  0.44512971     0.13500
C443        C  0.27293983  0.22271870  0.46667839    -0.24200
H444        H  0.26319719  0.24706879  0.40542896     0.14800
H445        H  0.16798529  0.18288034  0.44110853     0.14900
C446        C  0.15949221  0.20558131  0.37948292    -0.24100
H447        H  0.29229199  0.23683047  0.45419498     0.05100
H448        H  0.28382164  0.19860325  0.47186712     0.08300
H449        H  0.26593146  0.23559622  0.49066455     0.08300
H450        H  0.16749690  0.19221471  0.35606364     0.08300
H451        H  0.14848540  0.22932001  0.37305898     0.08300
H452        H  0.13995312  0.19151206  0.39172119     0.05100
C453        C  0.12046294  0.09126059  0.54054696    -0.20800
C454        C  0.10302590  0.09272960  0.51060957    -0.07300
C455        C  0.12018165  0.09750306  0.48035719     0.13500
C456        C  0.15350159  0.10564070  0.48143726    -0.20800
C457        C  0.16906018  0.11130480  0.51240187    -0.07300
C458        C  0.15378652  0.09972914  0.54173327     0.13500
C459        C  0.17107358  0.09736911  0.57474311    -0.24200
H460        H  0.10746780  0.08579589  0.56350930     0.14800
H461        H  0.16571876  0.11192670  0.45827645     0.14900
C462        C  0.10250633  0.09710638  0.44740432    -0.24100
H463        H  0.16718148  0.07316654  0.58494453     0.05100
H464        H  0.16071764  0.11596703  0.59292362     0.08300
H465        H  0.19820467  0.09986163  0.57213069     0.08300
H466        H  0.08288902  0.11631940  0.44789111     0.08300
H467        H  0.09109689  0.07331956  0.44303446     0.08300
H468        H  0.11961132  0.10133455  0.42602422     0.05100
C469        C  0.06782837  0.25717504  0.29730622    -0.20800
C470        C  0.05866827  0.22622835  0.28615878    -0.07300
C471        C  0.08411665  0.20532274  0.27234803     0.13500
C472        C  0.11757242  0.21489080  0.27191893    -0.20800
C473        C  0.12738748  0.24513517  0.28502133    -0.07300
C474        C  0.10139686  0.26691789  0.29694507     0.13500
C475        C  0.10843697  0.30037378  0.31031452    -0.24200
H476        H  0.04876512  0.27330572  0.30819340     0.14800
H477        H  0.13639020  0.19790850  0.26210787     0.14900
C478        C  0.07604999  0.17256588  0.25773717    -0.24100
H479        H  0.08535556  0.31425578  0.31728953     0.05100
H480        H  0.12161145  0.31389539  0.29085540     0.08300
H481        H  0.12354883  0.29903451  0.33321611     0.08300
H482        H  0.05773225  0.17526182  0.23753692     0.08300
H483        H  0.06566091  0.15734651  0.27732113     0.08300
H484        H  0.09833202  0.15969289  0.24682116     0.05100
C485        C  0.02212809  0.11790448  0.39561151    -0.20800
C486        C  0.99590714  0.12270843  0.41870243    -0.07300
C487        C  0.96763907  0.14074153  0.40954569     0.13500
C488        C  0.96738021  0.15588639  0.37870078    -0.20800
C489        C  0.99514048  0.15432098  0.35692044    -0.07300
C490        C  0.02222926  0.13352636  0.36479026     0.13500
C491        C  0.05147028  0.12772410  0.34132181    -0.24200
H492        H  0.04359404  0.10371770  0.40267435     0.14800
H493        H  0.94612224  0.17094673  0.37282795     0.14900
C494        C  0.93820414  0.14524477  0.43308404    -0.24100
H495        H  0.06861855  0.10870974  0.35038387     0.05100
H496        H  0.06586326  0.14996950  0.33934082     0.08300
H497        H  0.04275921  0.11960387  0.31626751     0.08300
H498        H  0.94543912  0.15813891  0.45653285     0.08300
H499        H  0.92856714  0.12131808  0.43916896     0.08300
H500        H  0.91786761  0.15950581  0.42183053     0.05100
C501        C  0.02998895  0.13362943  0.66660881    -0.20800
C502        C  0.99818874  0.14258062  0.67927187    -0.07300
C503        C  0.97030344  0.12898228  0.66324251     0.13500
C504        C  0.97495439  0.11142967  0.63266787    -0.20800
C505        C  0.00632484  0.10778374  0.61750319    -0.07300
C506        C  0.03429560  0.11694419  0.63567999     0.13500
C507        C  0.06866333  0.11098881  0.62128473    -0.24200
H508        H  0.05176296  0.14212245  0.67926473     0.14800
H509        H  0.95357861  0.10389750  0.61863945     0.14900
C510        C  0.93540354  0.13391200  0.67670046    -0.24100
H511        H  0.08794124  0.11921718  0.63890182     0.05100
H512        H  0.07174284  0.12414086  0.59772992     0.08300
H513        H  0.07279629  0.08475919  0.61598075     0.08300
H514        H  0.92695350  0.15932302  0.67411611     0.08300
H515        H  0.93412218  0.12719266  0.70338036     0.08300
H516        H  0.91775431  0.11869991  0.66265651     0.05100
C517        C  0.86132070  0.16342694  0.54530897    -0.20800
C518        C  0.84116922  0.14947689  0.52079725    -0.07300
C519        C  0.85406091  0.12421346  0.49946894     0.13500
C520        C  0.88746608  0.11482512  0.50198030    -0.20800
C521        C  0.90824468  0.13064440  0.52468823    -0.07300
C522        C  0.89475999  0.15445426  0.54748551     0.13500
C523        C  0.91517827  0.17011458  0.57453256    -0.24200
H524        H  0.85115052  0.18240239  0.56207070     0.14800
H525        H  0.89771846  0.09592516  0.48519827     0.14900
C526        C  0.83270181  0.10681931  0.47449850    -0.24100
H527        H  0.89982596  0.18627931  0.59161228     0.05100
H528        H  0.93457591  0.18497249  0.56328053     0.08300
H529        H  0.92685491  0.15130190  0.58989113     0.08300
H530        H  0.82414633  0.12352987  0.45514716     0.08300
H531        H  0.81097021  0.09693365  0.48763471     0.08300
H532        H  0.84642520  0.08643990  0.46139130     0.05100
C533        C  0.38449459  0.21997057  0.26258432    -0.20800
C534        C  0.36333239  0.24449513  0.25070512    -0.07300
C535        C  0.37860873  0.27063929  0.23480075     0.13500
C536        C  0.41350739  0.27044935  0.22949815    -0.20800
C537        C  0.43429406  0.24501113  0.23974862    -0.07300
C538        C  0.41932543  0.21992006  0.25730515     0.13500
C539        C  0.44009997  0.19192574  0.26886175    -0.24200
H540        H  0.37353182  0.19969088  0.27459484     0.14800
H541        H  0.42439590  0.28924702  0.21505427     0.14900
C542        C  0.35813576  0.29774848  0.22094500    -0.24100
H543        H  0.42498788  0.17434835  0.28234003     0.05100
H544        H  0.45930867  0.20090082  0.28614979     0.08300
H545        H  0.45234670  0.17907057  0.24698499     0.08300
H546        H  0.34405506  0.31050658  0.24162897     0.08300
H547        H  0.34068123  0.28816671  0.20213202     0.08300
H548        H  0.37373010  0.31565028  0.20853814     0.05100
C549        C  0.52262643  0.14247287  0.11973714    -0.20800
C550        C  0.49204547  0.12759628  0.11781357    -0.07300
C551        C  0.46300696  0.14647837  0.12330114     0.13500
C552        C  0.46517416  0.17725466  0.13859516    -0.20800
C553        C  0.49601904  0.18935357  0.14818468    -0.07300
C554        C  0.52517876  0.17334571  0.13483354     0.13500
C555        C  0.55929590  0.18682568  0.13833051    -0.24200
H556        H  0.54496057  0.12810064  0.11424476     0.14800
H557        H  0.44251567  0.19029013  0.14596280     0.14900
C558        C  0.42973246  0.13272100  0.11584716    -0.24100
H559        H  0.57779686  0.17292881  0.12239281     0.05100
H560        H  0.56769071  0.18543682  0.16457756     0.08300
H561        H  0.55923752  0.21214128  0.13018994     0.08300
H562        H  0.42617061  0.11043245  0.12983130     0.08300
H563        H  0.42835301  0.12669250  0.08859759     0.08300
H564        H  0.40920927  0.15009299  0.12279026     0.05100
C565        C  0.22189023  0.07235968  0.24496943    -0.20800
C566        C  0.24427270  0.05428088  0.26370217    -0.07300
C567        C  0.26085192  0.06952374  0.29053081     0.13500
C568        C  0.25817256  0.10318482  0.29507229    -0.20800
C569        C  0.23878169  0.12162258  0.27372106    -0.07300
C570        C  0.21877232  0.10598401  0.24985338     0.13500
C571        C  0.19637738  0.12501137  0.22758712    -0.24200
H572        H  0.20948209  0.06065208  0.22417108     0.14800
H573        H  0.27306574  0.11532851  0.31371965     0.14900
C574        C  0.28371963  0.05055393  0.31236338    -0.24100
H575        H  0.18288511  0.10905852  0.20990019     0.05100
H576        H  0.21112679  0.14178541  0.21265508     0.08300
H577        H  0.17781073  0.13910463  0.24323034     0.08300
H578        H  0.30425156  0.03917675  0.29698227     0.08300
H579        H  0.26968433  0.03146500  0.32470970     0.08300
H580        H  0.29468326  0.06611255  0.33223309     0.05100
C581        C  0.34710504  0.04515292  0.20123193    -0.20800
C582        C  0.33332541  0.01542762  0.19208430    -0.07300
C583        C  0.34905865  0.99599715  0.16644584     0.13500
C584        C  0.37950983  0.00565103  0.15279460    -0.20800
C585        C  0.39480847  0.03378380  0.16479449    -0.07300
C586        C  0.37746700  0.05453558  0.18822227     0.13500
C587        C  0.39067587  0.08656056  0.20026523    -0.24200
H588        H  0.33492789  0.06068462  0.22028629     0.14800
H589        H  0.39239452  0.99007856  0.13425803     0.14900
C590        C  0.33395909  0.96538300  0.15333881    -0.24100
H591        H  0.37212525  0.10070324  0.21590197     0.05100
H592        H  0.39698247  0.10124742  0.17853080     0.08300
H593        H  0.41268873  0.08306146  0.21603971     0.08300
H594        H  0.30862473  0.97070731  0.14433867     0.08300
H595        H  0.33283542  0.94755147  0.17337786     0.08300
H596        H  0.34871404  0.95420978  0.13207047     0.05100
C597        C  0.63677713  0.99167612  0.16091848    -0.20800
C598        C  0.65347529  0.01665845  0.17772572    -0.07300
C599        C  0.64058156  0.04889749  0.17556598     0.13500
C600        C  0.61018668  0.05421514  0.16009763    -0.20800
C601        C  0.59180325  0.02869973  0.14736813    -0.07300
C602        C  0.60595506  0.99725383  0.14604597     0.13500
C603        C  0.58751116  0.96917365  0.13139160    -0.24200
H604        H  0.64678301  0.96726810  0.16114213     0.14800
H605        H  0.59907344  0.07830238  0.16071371     0.14900
C606        C  0.65676058  0.07808915  0.19115824    -0.24100
H607        H  0.60209393  0.94621193  0.13257653     0.05100
H608        H  0.58214667  0.97338227  0.10467329     0.08300
H609        H  0.56393191  0.96633581  0.14547746     0.08300
H610        H  0.68209337  0.08039359  0.18051777     0.08300
H611        H  0.65744474  0.07624059  0.21883030     0.08300
H612        H  0.64296585  0.10085930  0.18613811     0.05100
C613        C  0.47181490  0.89858654  0.19876092    -0.20800
C614        C  0.49737476  0.89113713  0.22097609    -0.07300
C615        C  0.52243914  0.91383593  0.22693926     0.13500
C616        C  0.52125244  0.94290696  0.21021685    -0.20800
C617        C  0.49586137  0.94988478  0.18796241    -0.07300
C618        C  0.47063692  0.92774703  0.18235274     0.13500
C619        C  0.44152976  0.93550600  0.16065147    -0.24200
H620        H  0.45236155  0.88165385  0.19424473     0.14800
H621        H  0.54015999  0.96054509  0.21470167     0.14900
C622        C  0.54983411  0.90854648  0.25155956    -0.24100
H623        H  0.42333878  0.91589751  0.16016190     0.05100
H624        H  0.45002546  0.93904821  0.13448783     0.08300
H625        H  0.42867843  0.95778975  0.17071051     0.08300
H626        H  0.56651798  0.88835389  0.24251965     0.08300
H627        H  0.53915890  0.90333249  0.27655580     0.08300
H628        H  0.56531506  0.93013422  0.25469330     0.05100
C629        C  0.27947767  0.41609449  0.26288566    -0.20800
C630        C  0.25585010  0.43337022  0.24498948    -0.07300
C631        C  0.22594949  0.41874481  0.23615814     0.13500
C632        C  0.22115698  0.38636978  0.24380178    -0.20800
C633        C  0.24597715  0.36831276  0.25937209    -0.07300
C634        C  0.27477050  0.38378169  0.27051322     0.13500
C635        C  0.30042824  0.36642975  0.29067502    -0.24200
H636        H  0.30239042  0.42751943  0.26954220     0.14800
H637        H  0.19880767  0.37462069  0.23591767     0.14900
C638        C  0.20004120  0.43673180  0.21695042    -0.24100
H639        H  0.32057491  0.38260386  0.29849827     0.05100
H640        H  0.31179635  0.34604717  0.27565186     0.08300
H641        H  0.28868506  0.35716266  0.31365313     0.08300
H642        H  0.21059611  0.44403491  0.19256999     0.08300
H643        H  0.19146477  0.45859224  0.23172675     0.08300
H644        H  0.17824378  0.42170801  0.21178318     0.05100
C645        C  0.32922825  0.45580169  0.09945420    -0.20800
C646        C  0.34528903  0.48328502  0.08876293    -0.07300
C647        C  0.34863185  0.50984201  0.11132622     0.13500
C648        C  0.33408493  0.50890394  0.14343861    -0.20800
C649        C  0.31571218  0.48237558  0.15333789    -0.07300
C650        C  0.31410634  0.45496732  0.13123530     0.13500
C651        C  0.29476971  0.42555800  0.13955776    -0.24200
H652        H  0.32693918  0.43541564  0.08198348     0.14800
H653        H  0.33574475  0.52975170  0.16037159     0.14900
C654        C  0.36529838  0.54006714  0.10094000    -0.24100
H655        H  0.26846049  0.43252647  0.14488645     0.05100
H656        H  0.30562410  0.41378795  0.16154183     0.08300
H657        H  0.29525736  0.40732855  0.11850573     0.08300
H658        H  0.35250029  0.55013325  0.07908044     0.08300
H659        H  0.39159966  0.53449960  0.09416129     0.08300
H660        H  0.36468596  0.55888604  0.12141827     0.05100
C661        C  0.26611786  0.27904062  0.12626754    -0.20800
C662        C  0.28759907  0.25828959  0.14315117    -0.07300
C663        C  0.31725259  0.24676566  0.12689747     0.13500
C664        C  0.32438891  0.25615071  0.09419337    -0.20800
C665        C  0.30252674  0.27619262  0.07708950    -0.07300
C666        C  0.27313097  0.28800382  0.09332337     0.13500
C667        C  0.24980544  0.31103252  0.07652332    -0.24200
H668        H  0.24362349  0.28809128  0.13884377     0.14800
H669        H  0.34728634  0.24787238  0.08183290     0.14900
C670        C  0.34213514  0.22553309  0.14412420    -0.24100
H671        H  0.23944393  0.29916856  0.05382458     0.05100
H672        H  0.26321315  0.33282928  0.06928820     0.08300
H673        H  0.22877364  0.31891146  0.09335830     0.08300
H674        H  0.33139763  0.20180044  0.14905948     0.08300
H675        H  0.34964208  0.23728723  0.16810479     0.08300
H676        H  0.36483457  0.22089495  0.12846321     0.05100
C677        C  0.39005104  0.34570378  0.97736544    -0.20800
C678        C  0.37815843  0.33899354  0.00965423    -0.07300
C679        C  0.38561495  0.36055341  0.03672160     0.13500
C680        C  0.39798620  0.39087321  0.02945720    -0.20800
C681        C  0.40143857  0.40014090  0.99618882    -0.07300
C682        C  0.40118934  0.37637891  0.97028029     0.13500
C683        C  0.40950716  0.38382553  0.93461371    -0.24200
H684        H  0.38658778  0.32852863  0.95670966     0.14800
H685        H  0.39931521  0.40914865  0.04944812     0.14900
C686        C  0.37725743  0.35387130  0.07275043    -0.24100
H687        H  0.43006411  0.36754279  0.92521841     0.05100
H688        H  0.41755152  0.40903676  0.93242822     0.08300
H689        H  0.38758870  0.37987909  0.91875460     0.08300
H690        H  0.38889797  0.33054698  0.07960037     0.08300
H691        H  0.35003598  0.35333131  0.07657247     0.08300
H692        H  0.38656268  0.37285473  0.09020634     0.05100
C693        C  0.34814741  0.47491234  0.83903185    -0.20800
C694        C  0.33219553  0.50448545  0.83236201    -0.07300
C695        C  0.34068930  0.53231330  0.85196178     0.13500
C696        C  0.35990764  0.52840679  0.88069041    -0.20800
C697        C  0.36980585  0.49767867  0.89062513    -0.07300
C698        C  0.36618576  0.47109455  0.86830217     0.13500
C699        C  0.37884572  0.43808487  0.87693765    -0.24200
H700        H  0.34384026  0.45379031  0.82315785     0.14800
H701        H  0.36324701  0.54885213  0.89784090     0.14900
C702        C  0.32804040  0.56583509  0.84478950    -0.24100
H703        H  0.37427406  0.41984061  0.85664949     0.05100
H704        H  0.36620310  0.43032052  0.90005706     0.08300
H705        H  0.40591671  0.43876663  0.88094479     0.08300
H706        H  0.30085029  0.56773035  0.84892096     0.08300
H707        H  0.33460199  0.57173165  0.81861123     0.08300
H708        H  0.33912517  0.58433645  0.86161820     0.05100
C709        C  0.28003266  0.61769839  0.97520376    -0.20800
C710        C  0.28970102  0.63911789  0.00101787    -0.07300
C711        C  0.31518623  0.62952990  0.02281221     0.13500
C712        C  0.32970047  0.59862455  0.01853410    -0.20800
C713        C  0.31916870  0.57687646  0.99352816    -0.07300
C714        C  0.29429487  0.58662668  0.97126015     0.13500
C715        C  0.28343159  0.56490175  0.94266503    -0.24200
H716        H  0.26083957  0.62516707  0.95824721     0.14800
H717        H  0.34913907  0.59118092  0.03520644     0.14900
C718        C  0.32807317  0.65183047  0.04996465    -0.24100
H719        H  0.26533623  0.57729078  0.92651082     0.05100
H720        H  0.27136075  0.54338510  0.95251144     0.08300
H721        H  0.30515564  0.55719862  0.92672958     0.08300
H722        H  0.30861689  0.65711482  0.06943870     0.08300
H723        H  0.33613677  0.67460106  0.03893327     0.08300
H724        H  0.34964005  0.64095420  0.06273235     0.05100
C725        C  0.07499620  0.20830918  0.76855231    -0.20800
C726        C  0.05335231  0.22415181  0.74725961    -0.07300
C727        C  0.06315706  0.25246488  0.73151543     0.13500
C728        C  0.09525094  0.26355989  0.73637172    -0.20800
C729        C  0.11741772  0.24671499  0.75633795    -0.07300
C730        C  0.10691748  0.21953565  0.77363567     0.13500
C731        C  0.12923798  0.20262197  0.79774933    -0.24200
H732        H  0.06709002  0.18674596  0.78066294     0.14800
H733        H  0.10354672  0.28450331  0.72341382     0.14900
C734        C  0.04045564  0.26992743  0.70822283    -0.24100
H735        H  0.11664842  0.18247862  0.80988230     0.05100
H736        H  0.13680870  0.22001952  0.81776085     0.08300
H737        H  0.15163099  0.19250775  0.78446135     0.08300
H738        H  0.01787409  0.27882021  0.72216328     0.08300
H739        H  0.03331015  0.25334229  0.68730497     0.08300
H740        H  0.05247302  0.29100609  0.69726136     0.05100
C741        C  0.22345302  0.23344786  0.62264090    -0.20800
C742        C  0.24176160  0.21366181  0.64371361    -0.07300
C743        C  0.25417731  0.18327008  0.63132425     0.13500
C744        C  0.24720232  0.17312832  0.59845605    -0.20800
C745        C  0.22890710  0.19279751  0.57738818    -0.07300
C746        C  0.21721591  0.22353076  0.58935425     0.13500
C747        C  0.19714449  0.24532992  0.56761309    -0.24200
H748        H  0.21410656  0.25672158  0.63225594     0.14800
H749        H  0.25582513  0.14948715  0.58914545     0.14900
C750        C  0.27371034  0.16078010  0.65292440    -0.24100
H751        H  0.18900022  0.26791521  0.58140372     0.05100
H752        H  0.17474879  0.23280365  0.55892168     0.08300
H753        H  0.21223930  0.25209108  0.54558402     0.08300
H754        H  0.25915612  0.15552201  0.67580538     0.08300
H755        H  0.29742707  0.17171246  0.66010209     0.08300
H756        H  0.27982867  0.13753172  0.63945868     0.05100
C757        C  0.21997375  0.43025875  0.78432670    -0.20800
C758        C  0.25142361  0.43920114  0.77312617    -0.07300
C759        C  0.27383815  0.41421466  0.76147983     0.13500
C760        C  0.26570853  0.38154215  0.76448592    -0.20800
C761        C  0.23518699  0.37218083  0.77812873    -0.07300
C762        C  0.21142594  0.39739329  0.78676467     0.13500
C763        C  0.17722611  0.39038291  0.79968819    -0.24200
H764        H  0.20264169  0.44908695  0.79327409     0.14800
H765        H  0.28399589  0.36318345  0.75656040     0.14900
C766        C  0.30697312  0.42116634  0.74579736    -0.24100
H767        H  0.16199579  0.41278576  0.80432609     0.05100
H768        H  0.17879610  0.37794592  0.82382121     0.08300
H769        H  0.16421114  0.37522554  0.78089898     0.08300
H770        H  0.32708321  0.41191374  0.76177654     0.08300
H771        H  0.31046490  0.44721725  0.74212696     0.08300
H772        H  0.30911093  0.40888631  0.72066378     0.05100
C773        C  0.24590356  0.26835762  0.91649263    -0.20800
C774        C  0.24897976  0.29398513  0.89469377    -0.07300
C775        C  0.26614506  0.32155575  0.90502314     0.13500
C776        C  0.28147684  0.32220124  0.93623277    -0.20800
C777        C  0.28051021  0.29572977  0.95735893    -0.07300
C778        C  0.26149919  0.26883477  0.94781926     0.13500
C779        C  0.25911492  0.23988066  0.96940493    -0.24200
H780        H  0.23283113  0.24714591  0.90814871     0.14800
H781        H  0.29529640  0.34322756  0.94368106     0.14900
C782        C  0.26884260  0.35004874  0.88274796    -0.24100
H783        H  0.24442995  0.22059522  0.95731468     0.05100
H784        H  0.24673790  0.24693321  0.99367783     0.08300
H785        H  0.28424241  0.22972574  0.97398233     0.08300
H786        H  0.24369784  0.35943536  0.87692503     0.08300
H787        H  0.28205384  0.34274823  0.85898377     0.08300
H788        H  0.28263319  0.36993137  0.89493403     0.05100
C789        C  0.38171777  0.23858445  0.80584728    -0.20800
C790        C  0.36499506  0.26079750  0.78612203    -0.07300
C791        C  0.38208436  0.27615987  0.76029294     0.13500
C792        C  0.41434894  0.26551275  0.75168601    -0.20800
C793        C  0.42918032  0.24001641  0.76846669    -0.07300
C794        C  0.41383048  0.22783332  0.79712877     0.13500
C795        C  0.43036573  0.20179345  0.81682572    -0.24200
H796        H  0.36834354  0.22700424  0.82570346     0.14800
H797        H  0.42670284  0.27487699  0.72988839     0.14900
C798        C  0.36511564  0.30117904  0.73960034    -0.24100
H799        H  0.41485429  0.19504002  0.83859201     0.05100
H800        H  0.45429134  0.21047810  0.82641631     0.08300
H801        H  0.43501627  0.17986536  0.80056322     0.08300
H802        H  0.35639018  0.32180757  0.75615356     0.08300
H803        H  0.34361495  0.29062768  0.72666113     0.08300
H804        H  0.38206468  0.31049835  0.72021760     0.05100
C805        C  0.49285241  0.13497416  0.67518647    -0.20800
C806        C  0.46714811  0.14821807  0.69600558    -0.07300
C807        C  0.43665864  0.13184874  0.69749392     0.13500
C808        C  0.43417865  0.10167245  0.68085259    -0.20800
C809        C  0.46081871  0.08762291  0.66232379    -0.07300
C810        C  0.49008542  0.10497785  0.65836960     0.13500
C811        C  0.51931427  0.09105392  0.63834811    -0.24200
H812        H  0.51587901  0.14758283  0.67294771     0.14800
H813        H  0.41167345  0.08822816  0.68341391     0.14900
C814        C  0.40690199  0.14481231  0.71743403    -0.24100
H815        H  0.54057271  0.10748036  0.63871731     0.05100
H816        H  0.51228498  0.08687450  0.61181390     0.08300
H817        H  0.52760364  0.06792046  0.64899292     0.08300
H818        H  0.39856529  0.16833035  0.70765309     0.08300
H819        H  0.41306563  0.14757503  0.74436567     0.08300
H820        H  0.38566202  0.12841843  0.71560362     0.05100
C821        C  0.21958382  0.09480655  0.72687625    -0.20800
C822        C  0.24570219  0.07515663  0.73809449    -0.07300
C823        C  0.27021047  0.08972944  0.75797073     0.13500
C824        C  0.26915519  0.12343331  0.76446587    -0.20800
C825        C  0.24425940  0.14355932  0.75142318    -0.07300
C826        C  0.21842731  0.12862236  0.73334844     0.13500
C827        C  0.19099940  0.14837194  0.71832724    -0.24200
H828        H  0.20122042  0.08395330  0.71088413     0.14800
H829        H  0.28914476  0.13440944  0.77813045     0.14900
C830        C  0.29883647  0.06987204  0.77053079    -0.24100
H831        H  0.17348491  0.13303112  0.70427031     0.05100
H832        H  0.20142317  0.16569116  0.70065286     0.08300
H833        H  0.17675383  0.16174906  0.73852504     0.08300
H834        H  0.31319998  0.05866580  0.74902491     0.08300
H835        H  0.28937377  0.05060762  0.78647502     0.08300
H836        H  0.31589641  0.08473105  0.78571389     0.05100
C837        C  0.31399753  0.98373515  0.63257428    -0.20800
C838        C  0.30612700  0.01392183  0.64839959    -0.07300
C839        C  0.32668075  0.04025927  0.64147834     0.13500
C840        C  0.35715332  0.03410295  0.62476168    -0.20800
C841        C  0.36785199  0.00249445  0.61615985    -0.07300
C842        C  0.34502256  0.97759387  0.61718309     0.13500
C843        C  0.35473574  0.94391788  0.60502818    -0.24200
H844        H  0.29753275  0.96380481  0.63559565     0.14800
H845        H  0.37476657  0.05330998  0.62324936     0.14900
C846        C  0.31865692  0.07429985  0.65388962    -0.24100
H847        H  0.33387388  0.92718315  0.60727066     0.05100
H848        H  0.37545434  0.93458491  0.62009508     0.08300
H849        H  0.36260589  0.94414259  0.57824790     0.08300
H850        H  0.31981476  0.07614729  0.68165091     0.08300
H851        H  0.29365481  0.08162658  0.64544169     0.08300
H852        H  0.33649062  0.09166438  0.64391676     0.05100
C853        C  0.46759450  0.84559139  0.64568646    -0.20800
C854        C  0.49809733  0.84248430  0.66209953    -0.07300
C855        C  0.52267413  0.86545765  0.65593713     0.13500
C856        C  0.51424124  0.89279701  0.63763931    -0.20800
C857        C  0.48167418  0.89851465  0.62729183    -0.07300
C858        C  0.45893409  0.87359435  0.62894025     0.13500
C859        C  0.42465994  0.87701680  0.61521978    -0.24200
H860        H  0.44902314  0.82746714  0.64864253     0.14800
H861        H  0.53185538  0.91193259  0.63557740     0.14900
C862        C  0.55655901  0.86337124  0.67105958    -0.24100
H863        H  0.42024536  0.85667824  0.59719440     0.05100
H864        H  0.42128299  0.89972987  0.60166476     0.08300
H865        H  0.40609731  0.87662451  0.63601169     0.08300
H866        H  0.56925789  0.84037940  0.66277031     0.08300
H867        H  0.55443993  0.86491019  0.69884638     0.08300
H868        H  0.57234050  0.88340244  0.66322869     0.05100
C869        C  0.60007888  0.97070023  0.70592034    -0.20800
C870        C  0.62211182  0.99259943  0.69264016    -0.07300
C871        C  0.61186128  0.01281516  0.66677336     0.13500
C872        C  0.57943435  0.01087048  0.65521463    -0.20800
C873        C  0.55675762  0.99033186  0.66992252    -0.07300
C874        C  0.56728863  0.96975162  0.69551642     0.13500
C875        C  0.54438255  0.94682336  0.71228292    -0.24200
H876        H  0.60817840  0.95524764  0.72573855     0.14800
H877        H  0.57141955  0.02633455  0.63539888     0.14900
C878        C  0.63495728  0.03613308  0.65098574    -0.24100
H879        H  0.55778751  0.93079768  0.72951621     0.05100
H880        H  0.53236576  0.93130621  0.69322620     0.08300
H881        H  0.52519769  0.96054858  0.72742463     0.08300
H882        H  0.65762759  0.02304892  0.64132875     0.08300
H883        H  0.64177120  0.05511395  0.66966402     0.08300
H884        H  0.62331482  0.04842012  0.62969275     0.05100
C885        C  0.74939315  0.09906680  0.73519587    -0.20800
C886        C  0.72637995  0.12311285  0.74706477    -0.07300
C887        C  0.69428490  0.11371818  0.75703732     0.13500
C888        C  0.68619865  0.08105381  0.75412817    -0.20800
C889        C  0.70890720  0.05747892  0.74116329    -0.07300
C890        C  0.74098924  0.06656162  0.73179507     0.13500
C891        C  0.76577601  0.04252460  0.71621775    -0.24200
H892        H  0.77389240  0.10582182  0.72711723     0.14800
H893        H  0.66144860  0.07392082  0.76099931     0.14900
C894        C  0.66815981  0.13757517  0.77049920    -0.24100
H895        H  0.78916247  0.05409284  0.70890679     0.05100
H896        H  0.75537013  0.03105664  0.69329464     0.08300
H897        H  0.77193875  0.02372419  0.73438718     0.08300
H898        H  0.66080765  0.15433619  0.75068901     0.08300
H899        H  0.67770608  0.15132440  0.79248170     0.08300
H900        H  0.64541250  0.12543413  0.77877207     0.05100
C901        C  0.73127921  0.17916452  0.63218137    -0.20800
C902        C  0.73751158  0.21002522  0.64549162    -0.07300
C903        C  0.74319917  0.23536427  0.62356005     0.13500
C904        C  0.74580699  0.22846812  0.58875890    -0.20800
C905        C  0.74327762  0.19674175  0.57585571    -0.07300
C906        C  0.73415453  0.17219145  0.59762542     0.13500
C907        C  0.72932289  0.13813122  0.58459528    -0.24200
H908        H  0.72653296  0.15988144  0.64915505     0.14800
H909        H  0.75313932  0.24718694  0.57207221     0.14900
C910        C  0.74901730  0.26899110  0.63707050    -0.24100
H911        H  0.72139762  0.12218837  0.60487662     0.05100
H912        H  0.75271911  0.12776885  0.57345281     0.08300
H913        H  0.70994413  0.13806151  0.56520735     0.08300
H914        H  0.77092211  0.26892310  0.65349951     0.08300
H915        H  0.72696535  0.27799018  0.65183733     0.08300
H916        H  0.75351788  0.28589866  0.61659232     0.05100
C917        C  0.59278949  0.24300985  0.78058950    -0.20800
C918        C  0.61532992  0.23580895  0.75407116    -0.07300
C919        C  0.60383788  0.22046452  0.72423399     0.13500
C920        C  0.57047480  0.21283826  0.72204574    -0.20800
C921        C  0.54796074  0.22015605  0.74841500    -0.07300
C922        C  0.55927942  0.23543117  0.77824169     0.13500
C923        C  0.53672776  0.24311362  0.80810505    -0.24200
H924        H  0.60146900  0.25448002  0.80349281     0.14800
H925        H  0.56176987  0.20140842  0.69912227     0.14900
C926        C  0.62590708  0.21262780  0.69395510    -0.24100
H927        H  0.55053032  0.25274895  0.82993380     0.05100
H928        H  0.52434126  0.22094166  0.81592185     0.08300
H929        H  0.51794282  0.26178848  0.80181100     0.08300
H930        H  0.64488143  0.19402343  0.69999249     0.08300
H931        H  0.63795885  0.23479430  0.68562009     0.08300
H932        H  0.61183271  0.20276989  0.67241740     0.05100
C933        C  0.88407192  0.24445445  0.77127145    -0.20800
C934        C  0.86734935  0.25205274  0.74189380    -0.07300
C935        C  0.88495511  0.25185980  0.71096286     0.13500
C936        C  0.91764493  0.24007771  0.70948039    -0.20800
C937        C  0.93314474  0.22909334  0.73817190    -0.07300
C938        C  0.91701617  0.23285444  0.76972125     0.13500
C939        C  0.93370686  0.22263251  0.80124368    -0.24200
H940        H  0.87057510  0.24495078  0.79499539     0.14800
H941        H  0.93076832  0.23812833  0.68554159     0.14900
C942        C  0.86931463  0.26361911  0.67938010    -0.24100
H943        H  0.91725196  0.22655835  0.82365443     0.05100
H944        H  0.95626875  0.23685974  0.80521914     0.08300
H945        H  0.94072820  0.19660511  0.79904588     0.08300
H946        H  0.85913798  0.28850902  0.68392564     0.08300
H947        H  0.84926772  0.24759567  0.67118468     0.08300
H948        H  0.88761645  0.26412420  0.65834610     0.05100
C949        C  0.72359198  0.10614859  0.27883041    -0.20800
C950        C  0.74776153  0.12046340  0.25915760    -0.07300
C951        C  0.76973695  0.10082246  0.23907927     0.13500
C952        C  0.76459751  0.06747874  0.23617519    -0.20800
C953        C  0.73801470  0.05365934  0.25295789    -0.07300
C954        C  0.71858601  0.07284591  0.27607205     0.13500
C955        C  0.69074937  0.05851658  0.29571187    -0.24200
H956        H  0.70706301  0.12135892  0.29452525     0.14800
H957        H  0.77911695  0.05282240  0.21806361     0.14900
C958        C  0.79679315  0.11541303  0.21861565    -0.24100
H959        H  0.67809590  0.07677366  0.31277836     0.05100
H960        H  0.70075033  0.03887487  0.31113868     0.08300
H961        H  0.67204640  0.04855572  0.27843031     0.08300
H962        H  0.81380262  0.12850177  0.23552337     0.08300
H963        H  0.78591729  0.13254114  0.20079546     0.08300
H964        H  0.81150993  0.09672049  0.20393620     0.05100
C965        C  0.75400106  0.24200980  0.41094740    -0.20800
C966        C  0.75730012  0.21930443  0.38383662    -0.07300
C967        C  0.75859554  0.18597265  0.39111357     0.13500
C968        C  0.75932058  0.17686504  0.42472999    -0.20800
C969        C  0.75805540  0.19975754  0.45143380    -0.07300
C970        C  0.75435930  0.23268846  0.44447732     0.13500
C971        C  0.75270308  0.25822556  0.47225492    -0.24200
H972        H  0.75199505  0.26748523  0.40605219     0.14800
H973        H  0.76213956  0.15156504  0.43031234     0.14900
C974        C  0.76012162  0.15958130  0.36411827    -0.24100
H975        H  0.75070180  0.28287300  0.46235608     0.05100
H976        H  0.77538523  0.25677549  0.48750428     0.08300
H977        H  0.73066424  0.25467085  0.48853253     0.08300
H978        H  0.78274056  0.16173314  0.34829279     0.08300
H979        H  0.73772418  0.16101897  0.34844804     0.08300
H980        H  0.76098768  0.13521229  0.37479570     0.05100
C981        C  0.61484511  0.21772038  0.24431728    -0.20800
C982        C  0.63265189  0.24469226  0.23441701    -0.07300
C983        C  0.61390407  0.27267184  0.22607996     0.13500
C984        C  0.57869431  0.27194382  0.22512857    -0.20800
C985        C  0.56113913  0.24423253  0.23316740    -0.07300
C986        C  0.57980415  0.21724666  0.24400297     0.13500
C987        C  0.56263189  0.18712870  0.25395694    -0.24200
H988        H  0.62855136  0.19625319  0.25125928     0.14800
H989        H  0.56494735  0.29248424  0.21594378     0.14900
C990        C  0.63094936  0.30277767  0.21616296    -0.24100
H991        H  0.58045293  0.16842020  0.26241812     0.05100
H992        H  0.54904798  0.17672802  0.23238252     0.08300
H993        H  0.54485166  0.19307100  0.27489607     0.08300
H994        H  0.64758558  0.29744622  0.19414701     0.08300
H995        H  0.64561862  0.31203672  0.23749945     0.08300
H996        H  0.61296433  0.32207928  0.20946430     0.05100
C997        C  0.87498727  0.21357967  0.26669344    -0.20800
C998        C  0.86130314  0.24150236  0.28342008    -0.07300
C999        C  0.88424239  0.26231748  0.29986083     0.13500
C1000       C  0.91861993  0.25402009  0.30017799    -0.20800
C1001       C  0.93168998  0.22539902  0.28491096    -0.07300
C1002       C  0.90932422  0.20528317  0.26749673     0.13500
C1003       C  0.92171563  0.17450284  0.24996234    -0.24200
H1004       H  0.85856005  0.19738621  0.25367402     0.14800
H1005       H  0.93524153  0.26915987  0.31431073     0.14900
C1006       C  0.87305087  0.29292084  0.31860194    -0.24100
H1007       H  0.90157820  0.16187770  0.23672892     0.05100
H1008       H  0.93228964  0.15785213  0.26839105     0.08300
H1009       H  0.94111422  0.18003435  0.23114971     0.08300
H1010       H  0.85590358  0.28722728  0.33946888     0.08300
H1011       H  0.86072455  0.30954342  0.30121198     0.08300
H1012       H  0.89410445  0.30588345  0.32980756     0.05100
C1013       C  0.72992509  0.41867893  0.22959223    -0.20800
C1014       C  0.75444552  0.43532142  0.24691377    -0.07300
C1015       C  0.77192096  0.41986141  0.27224928     0.13500
C1016       C  0.76739438  0.38699146  0.27682640    -0.20800
C1017       C  0.74577633  0.36898131  0.25662807    -0.07300
C1018       C  0.72489783  0.38575750  0.23442388     0.13500
C1019       C  0.69807847  0.36945724  0.21490539    -0.24200
H1020       H  0.71651815  0.43087328  0.21018212     0.14800
H1021       H  0.78230668  0.37510738  0.29531244     0.14900
C1022       C  0.79717468  0.43689546  0.29326009    -0.24100
H1023       H  0.68410667  0.38667879  0.19939690     0.05100
H1024       H  0.68020243  0.35895903  0.23257867     0.08300
H1025       H  0.70878847  0.35031124  0.19772898     0.08300
H1026       H  0.79858807  0.46286505  0.28788488     0.08300
H1027       H  0.79047798  0.43506044  0.32021748     0.08300
H1028       H  0.82197661  0.42538275  0.28855376     0.05100
C1029       C  0.83313827  0.44529380  0.10219723    -0.20800
C1030       C  0.85766753  0.46717151  0.09430095    -0.07300
C1031       C  0.86830063  0.48944866  0.11914810     0.13500
C1032       C  0.85123534  0.49177599  0.15002252    -0.20800
C1033       C  0.82469877  0.47171628  0.15689114    -0.07300
C1034       C  0.81666029  0.44696192  0.13330391     0.13500
C1035       C  0.78947113  0.42350082  0.13949899    -0.24200
H1036       H  0.82570871  0.42775365  0.08319392     0.14800
H1037       H  0.85797062  0.51004239  0.16856072     0.14900
C1038       C  0.89651825  0.51168747  0.11293794    -0.24100
H1039       H  0.78597987  0.40682932  0.11754437     0.05100
H1040       H  0.76563989  0.43677886  0.14459607     0.08300
H1041       H  0.79577413  0.40844290  0.16107244     0.08300
H1042       H  0.89150332  0.52678259  0.09111222     0.08300
H1043       H  0.91963347  0.49720218  0.10796791     0.08300
H1044       H  0.90068982  0.52809817  0.13494213     0.05100
C1045       C  0.77011909  0.29977052  0.08691585    -0.20800
C1046       C  0.76331757  0.27819909  0.06004992    -0.07300
C1047       C  0.74313819  0.25163610  0.06673532     0.13500
C1048       C  0.73222063  0.24657103  0.09992922    -0.20800
C1049       C  0.74095895  0.26696656  0.12723413    -0.07300
C1050       C  0.75972304  0.29451232  0.12013185     0.13500
C1051       C  0.77053953  0.31794622  0.14725771    -0.24200
H1052       H  0.78463222  0.32072283  0.08208199     0.14800
H1053       H  0.71763273  0.22562774  0.10470972     0.14900
C1054       C  0.73411956  0.22753042  0.03953353    -0.24100
H1055       H  0.78548515  0.33757572  0.13705507     0.05100
H1056       H  0.78604529  0.30524387  0.16562050     0.08300
H1057       H  0.74854487  0.32942564  0.16003599     0.08300
H1058       H  0.75691484  0.21654793  0.02762497     0.08300
H1059       H  0.71900788  0.23959618  0.02041538     0.08300
H1060       H  0.71930868  0.20770630  0.04950172     0.05100
C1061       C  0.73677185  0.27772335  0.92710465    -0.20800
C1062       C  0.76952553  0.26858624  0.93398839    -0.07300
C1063       C  0.79018205  0.25632867  0.90723717     0.13500
C1064       C  0.77875149  0.25666236  0.87420452    -0.20800
C1065       C  0.74708194  0.26887656  0.86663837    -0.07300
C1066       C  0.72516099  0.27796530  0.89389520     0.13500
C1067       C  0.68995525  0.28920454  0.88858015    -0.24200
H1068       H  0.72079726  0.28670000  0.94760507     0.14800
H1069       H  0.79532905  0.24826057  0.85396301     0.14900
C1070       C  0.82451084  0.24278914  0.91320294    -0.24100
H1071       H  0.67672158  0.29520440  0.91269081     0.05100
H1072       H  0.67617645  0.26980523  0.87556430     0.08300
H1073       H  0.68954526  0.31124179  0.87357830     0.08300
H1074       H  0.82337544  0.22415673  0.93247797     0.08300
H1075       H  0.84123459  0.26211719  0.92149035     0.08300
H1076       H  0.83570626  0.23129078  0.89001874     0.05100
C1077       C  0.86308249  0.33746229  0.96281870    -0.20800
C1078       C  0.85408102  0.32642217  0.99471502    -0.07300
C1079       C  0.87013118  0.33979742  0.02318387     0.13500
C1080       C  0.88903996  0.36750700  0.01955135    -0.20800
C1081       C  0.89170392  0.38212573  0.98851887    -0.07300
C1082       C  0.88131620  0.36540743  0.95949256     0.13500
C1083       C  0.88684513  0.37885352  0.92524055    -0.24200
H1084       H  0.85317644  0.32630042  0.94034155     0.14800
H1085       H  0.89776278  0.38022146  0.04176092     0.14900
C1086       C  0.86653061  0.32636366  0.05761069    -0.24100
H1087       H  0.87743431  0.36264354  0.90504087     0.05100
H1088       H  0.91374124  0.38179540  0.92069987     0.08300
H1089       H  0.87394393  0.40263742  0.92346558     0.08300
H1090       H  0.87216190  0.30002715  0.05643340     0.08300
H1091       H  0.84119634  0.33125766  0.06777482     0.08300
H1092       H  0.88385822  0.33767104  0.07555261     0.05100
C1093       C  0.80962635  0.41092667  0.77370155    -0.20800
C1094       C  0.78732498  0.43679119  0.78074506    -0.07300
C1095       C  0.75327042  0.43041665  0.78433637     0.13500
C1096       C  0.74271954  0.39830928  0.78138727    -0.20800
C1097       C  0.76526404  0.37222566  0.77506828    -0.07300
C1098       C  0.79940895  0.37897341  0.77104375     0.13500
C1099       C  0.82592982  0.35298261  0.76514920    -0.24200
H1100       H  0.83573085  0.41574808  0.77087790     0.14800
H1101       H  0.71662473  0.39358591  0.78435888     0.14900
C1102       C  0.72811366  0.45699473  0.79262584    -0.24100
H1103       H  0.85116430  0.36294855  0.76471501     0.05100
H1104       H  0.82254124  0.34041130  0.74050063     0.08300
H1105       H  0.82511680  0.33555181  0.78563388     0.08300
H1106       H  0.72735245  0.47427901  0.77201843     0.08300
H1107       H  0.73466347  0.46979370  0.81639275     0.08300
H1108       H  0.70285404  0.44752548  0.79583056     0.05100
C1109       C  0.87688513  0.52602371  0.85643229    -0.20800
C1110       C  0.87362954  0.49807838  0.83596546    -0.07300
C1111       C  0.89017869  0.46930415  0.84524268     0.13500
C1112       C  0.90141841  0.46703232  0.87812557    -0.20800
C1113       C  0.89792539  0.49337289  0.90081111    -0.07300
C1114       C  0.88826342  0.52380124  0.88920065     0.13500
C1115       C  0.88652762  0.55314717  0.91248800    -0.24200
H1116       H  0.86643491  0.54883397  0.84875572     0.14800
H1117       H  0.91004968  0.44388776  0.88686676     0.14900
C1118       C  0.89484031  0.44030486  0.82178285    -0.24100
H1119       H  0.87856159  0.57512472  0.89934532     0.05100
H1120       H  0.91131201  0.55734327  0.92311051     0.08300
H1121       H  0.86848776  0.54949091  0.93317968     0.08300
H1122       H  0.88812667  0.44566280  0.79568149     0.08300
H1123       H  0.87978913  0.42019803  0.83072335     0.08300
H1124       H  0.92133047  0.43252651  0.82110752     0.05100
C1125       C  0.87195010  0.59511690  0.99517730    -0.20800
C1126       C  0.85934163  0.57133039  0.01556272    -0.07300
C1127       C  0.83377827  0.57942291  0.03919330     0.13500
C1128       C  0.82039051  0.61076623  0.04070758    -0.20800
C1129       C  0.83053856  0.63370054  0.01799834    -0.07300
C1130       C  0.85721392  0.62616055  0.99546821     0.13500
C1131       C  0.86988557  0.65045701  0.97150575    -0.24200
H1132       H  0.89169149  0.58874774  0.97731566     0.14800
H1133       H  0.80001157  0.61662410  0.05803643     0.14900
C1134       C  0.81955987  0.55486838  0.06211285    -0.24100
H1135       H  0.89193366  0.64094282  0.95703538     0.05100
H1136       H  0.87701233  0.67261147  0.98567953     0.08300
H1137       H  0.85058835  0.65662568  0.95319346     0.08300
H1138       H  0.83942419  0.54415859  0.07723015     0.08300
H1139       H  0.80745093  0.53552117  0.04735648     0.08300
H1140       H  0.80061584  0.56585823  0.07976701     0.05100
C1141       C  0.72282651  0.71594611  0.12409460    -0.20800
C1142       C  0.74791309  0.72191342  0.14757031    -0.07300
C1143       C  0.78040535  0.72748151  0.13508746     0.13500
C1144       C  0.78706076  0.72441979  0.10047527    -0.20800
C1145       C  0.76274491  0.71544708  0.07761331    -0.07300
C1146       C  0.72993758  0.71227315  0.08939250     0.13500
C1147       C  0.70290571  0.70288216  0.06576660    -0.24200
H1148       H  0.69781878  0.71215603  0.13299575     0.14800
H1149       H  0.81224319  0.72680463  0.09127814     0.14900
C1150       C  0.80890792  0.73556030  0.15759955    -0.24100
H1151       H  0.67875163  0.70091649  0.07910280     0.05100
H1152       H  0.70918579  0.67916876  0.05324557     0.08300
H1153       H  0.70005303  0.72137485  0.04649413     0.08300
H1154       H  0.81551676  0.71461277  0.17292308     0.08300
H1155       H  0.80228789  0.75696872  0.17398881     0.08300
H1156       H  0.83150886  0.74134323  0.14302952     0.05100
C1157       C  0.59601772  0.75540500  0.25361781    -0.20800
C1158       C  0.62136410  0.77426394  0.26681978    -0.07300
C1159       C  0.61329634  0.80485388  0.28221592     0.13500
C1160       C  0.58052786  0.81640116  0.28165589    -0.20800
C1161       C  0.55586297  0.79841552  0.26619130    -0.07300
C1162       C  0.56341766  0.76714400  0.25276619     0.13500
C1163       C  0.53799424  0.74681979  0.23538148    -0.24200
H1164       H  0.60193748  0.73167764  0.24263232     0.14800
H1165       H  0.57431191  0.84033362  0.29199704     0.14900
C1166       C  0.63882530  0.82638285  0.29773110    -0.24100
H1167       H  0.54890826  0.72369226  0.22499561     0.05100
H1168       H  0.52727359  0.76002520  0.21420715     0.08300
H1169       H  0.51809300  0.74087294  0.25344832     0.08300
H1170       H  0.65775594  0.83218844  0.27858499     0.08300
H1171       H  0.65065894  0.81432822  0.31904196     0.08300
H1172       H  0.62770710  0.84958487  0.30769753     0.05100
C1173       C  0.73086482  0.59803396  0.24616128    -0.20800
C1174       C  0.75552662  0.62007973  0.23878097    -0.07300
C1175       C  0.78692042  0.60834100  0.22716412     0.13500
C1176       C  0.79278405  0.57497641  0.22343484    -0.20800
C1177       C  0.76813380  0.55275221  0.23060072    -0.07300
C1178       C  0.73669438  0.56455610  0.24230966     0.13500
C1179       C  0.70870049  0.54237822  0.24949776    -0.24200
H1180       H  0.70674273  0.60712640  0.25484487     0.14800
H1181       H  0.81684962  0.56618462  0.21427212     0.14900
C1182       C  0.81387310  0.63072889  0.21697739    -0.24100
H1183       H  0.68552685  0.55598525  0.25674034     0.05100
H1184       H  0.71517581  0.52682136  0.27061726     0.08300
H1185       H  0.70360712  0.52721033  0.22680298     0.03700
H1186       H  0.82217438  0.64503959  0.23911904     0.08300
H1187       H  0.80457061  0.64718466  0.19766217     0.08300
H1188       H  0.83588169  0.61730253  0.20619553     0.05100
C1189       C  0.70828860  0.87773949  0.23955824    -0.20800
C1190       C  0.73601959  0.87156282  0.25923474    -0.07300
C1191       C  0.75384447  0.89800916  0.27208769     0.13500
C1192       C  0.74469654  0.92950247  0.26318046    -0.20800
C1193       C  0.71794786  0.93577981  0.24186342    -0.07300
C1194       C  0.69888419  0.90915144  0.23074318     0.13500
C1195       C  0.66859786  0.91283489  0.20949090    -0.24200
H1196       H  0.69427203  0.85756314  0.23008859     0.14800
H1197       H  0.75905243  0.94934496  0.27278476     0.14900
C1198       C  0.78192382  0.89346277  0.29603296    -0.24100
H1199       H  0.65626186  0.88953082  0.20487343     0.05100
H1200       H  0.67573168  0.92185401  0.18461918     0.08300
H1201       H  0.65017380  0.92946935  0.22236297     0.08300
H1202       H  0.80299760  0.88029008  0.28322427     0.08300
H1203       H  0.77335637  0.87981536  0.31787169     0.08300
H1204       H  0.79120992  0.91689034  0.30570471     0.05100
C1205       C  0.21993055  0.71829488  0.09153055    -0.20800
C1206       C  0.24691356  0.72858914  0.07231644    -0.07300
C1207       C  0.27410024  0.74161192  0.08941895     0.13500
C1208       C  0.27503164  0.74138566  0.12477763    -0.20800
C1209       C  0.24924690  0.72864354  0.14407816    -0.07300
C1210       C  0.22046335  0.71866476  0.12705694     0.13500
C1211       C  0.19102663  0.70645694  0.14588564    -0.24200
H1212       H  0.19927329  0.70770749  0.07859455     0.14800
H1213       H  0.29684797  0.74993355  0.13736175     0.14900
C1214       C  0.30309129  0.75417008  0.07009759    -0.24100
H1215       H  0.17122357  0.69863218  0.12869317     0.05100
H1216       H  0.18045850  0.72589579  0.16293040     0.08300
H1217       H  0.19859833  0.68555331  0.16073691     0.08300
H1218       H  0.29446540  0.77392218  0.05403547     0.08300
H1219       H  0.31472952  0.73456041  0.05400119     0.08300
H1220       H  0.32226150  0.76382555  0.08704613     0.05100
C1221       C  0.38791693  0.77752580  0.22274226    -0.20800
C1222       C  0.37488567  0.76740797  0.25323227    -0.07300
C1223       C  0.39382521  0.76965021  0.28264682     0.13500
C1224       C  0.42468141  0.78405901  0.28112212    -0.20800
C1225       C  0.43646889  0.79629840  0.25108138    -0.07300
C1226       C  0.41859332  0.79199049  0.22125804     0.13500
C1227       C  0.43194551  0.80194467  0.18774899    -0.24200
H1228       H  0.37354821  0.77503529  0.20013289     0.14800
H1229       H  0.43922245  0.78666526  0.30360010     0.14900
C1230       C  0.38205303  0.75636895  0.31533901    -0.24100
H1231       H  0.41562368  0.79450906  0.16689977     0.05100
H1232       H  0.45675114  0.79049392  0.18286321     0.08300
H1233       H  0.43375899  0.82848340  0.18740826     0.08300
H1234       H  0.37643414  0.73045978  0.31162357     0.08300
H1235       H  0.35959222  0.76987809  0.32478551     0.08300
H1236       H  0.40110735  0.75840111  0.33498674     0.05100
C1237       C  0.25705541  0.60208416  0.26415268    -0.20800
C1238       C  0.24411177  0.61968530  0.23774703    -0.07300
C1239       C  0.23226168  0.60318399  0.20917315     0.13500
C1240       C  0.23560124  0.56947087  0.20668171    -0.20800
C1241       C  0.25110759  0.55196418  0.23183159    -0.07300
C1242       C  0.26097191  0.56837497  0.26152460     0.13500
C1243       C  0.27817037  0.55176003  0.28964955    -0.24200
H1244       H  0.26647365  0.61493879  0.28596056     0.14800
H1245       H  0.22827876  0.55687094  0.18384454     0.14900
C1246       C  0.21806054  0.62126337  0.18047092    -0.24100
H1247       H  0.26367480  0.55613220  0.31331314     0.05100
H1248       H  0.30318015  0.56175174  0.29287779     0.08300
H1249       H  0.28117738  0.52538786  0.28531481     0.08300
H1250       H  0.23680745  0.63760218  0.17031860     0.08300
H1251       H  0.19595424  0.63561988  0.18948848     0.08300
H1252       H  0.21041044  0.60470180  0.15973532     0.05100
C1253       C  0.23434599  0.89286085  0.27442538    -0.20800
C1254       C  0.26067552  0.87002051  0.27092467    -0.07300
C1255       C  0.29220182  0.88108932  0.26074449     0.13500
C1256       C  0.29573499  0.91379009  0.25311670    -0.20800
C1257       C  0.26895971  0.93616798  0.25535350    -0.07300
C1258       C  0.23786545  0.92538789  0.26674262     0.13500
C1259       C  0.20756806  0.94736684  0.26963485    -0.24200
H1260       H  0.21020146  0.88514038  0.28252749     0.14800
H1261       H  0.31973465  0.92188155  0.24494555     0.14900
C1262       C  0.32234527  0.85895226  0.25719420    -0.24100
H1263       H  0.18508124  0.93420705  0.27677451     0.05100
H1264       H  0.20278823  0.95843161  0.24517294     0.08300
H1265       H  0.21106604  0.96639466  0.28936388     0.08300
H1266       H  0.31837281  0.83992317  0.23756269     0.08300
H1267       H  0.32755814  0.84782480  0.28153284     0.08300
H1268       H  0.34475346  0.87205708  0.24967872     0.05100
C1269       C  0.26688929  0.79430345  0.39288931    -0.20800
C1270       C  0.25298887  0.76850734  0.37469460    -0.07300
C1271       C  0.24013921  0.74277348  0.39276646     0.13500
C1272       C  0.23934403  0.74442627  0.42825348    -0.20800
C1273       C  0.25104147  0.77128977  0.44656347    -0.07300
C1274       C  0.26586336  0.79605941  0.42844613     0.13500
C1275       C  0.27870917  0.82537796  0.44667808    -0.24200
H1276       H  0.27669870  0.81417450  0.37923159     0.14800
H1277       H  0.22716785  0.72571692  0.44175677     0.14900
C1278       C  0.22589462  0.71415638  0.37448090    -0.24100
H1279       H  0.28953238  0.84256467  0.42907141     0.05100
H1280       H  0.29822978  0.81791823  0.46428174     0.08300
H1281       H  0.25827463  0.83810999  0.46105285     0.08300
H1282       H  0.24526369  0.70217536  0.35803056     0.08300
H1283       H  0.20504132  0.72216549  0.35883446     0.08300
H1284       H  0.21656041  0.69618569  0.39208666     0.05100
C1285       C  0.09915351  0.79656781  0.53944379    -0.20800
C1286       C  0.08604208  0.81858722  0.51711211    -0.07300
C1287       C  0.10698226  0.83239899  0.49311263     0.13500
C1288       C  0.14079462  0.82389781  0.49238391    -0.20800
C1289       C  0.15399588  0.80228899  0.51525135    -0.07300
C1290       C  0.13281626  0.78833195  0.53909614     0.13500
C1291       C  0.14490155  0.76377668  0.56350568    -0.24200
H1292       H  0.08283605  0.78565156  0.55738680     0.14800
H1293       H  0.15703650  0.83422905  0.47396073     0.14900
C1294       C  0.09368965  0.85488276  0.46738607    -0.24100
H1295       H  0.12419524  0.75356762  0.57800038     0.05100
H1296       H  0.16156267  0.77516836  0.58199432     0.08300
H1297       H  0.15808096  0.74345991  0.54974356     0.08300
H1298       H  0.08333922  0.87725085  0.47995184     0.08300
H1299       H  0.07409129  0.84284182  0.45280033     0.08300
H1300       H  0.11331816  0.86193962  0.44947561     0.05100
C1301       C  0.10751820  0.72602473  0.24483671    -0.20800
C1302       C  0.12828733  0.72239006  0.27241969    -0.07300
C1303       C  0.11469783  0.71368317  0.30355651     0.13500
C1304       C  0.08040803  0.71325046  0.30758376    -0.20800
C1305       C  0.05954185  0.72163829  0.28146036    -0.07300
C1306       C  0.07294155  0.72588287  0.24908992     0.13500
C1307       C  0.05102806  0.73256652  0.21984384    -0.24200
H1308       H  0.11817605  0.73175503  0.22071975     0.14800
H1309       H  0.06977509  0.70900511  0.33212982     0.14900
C1310       C  0.13604264  0.70602118  0.33303712    -0.24100
H1311       H  0.06569056  0.73579709  0.19646836     0.05100
H1312       H  0.03583453  0.75486935  0.22512953     0.08300
H1313       H  0.03444915  0.71199094  0.21544924     0.08300
H1314       H  0.14818580  0.72804761  0.34256288     0.08300
H1315       H  0.15502906  0.68727302  0.32543968     0.08300
H1316       H  0.12124774  0.69673670  0.35415968     0.05100
C1317       C  0.89146864  0.72983019  0.23768674    -0.20800
C1318       C  0.87002077  0.71783720  0.26192407    -0.07300
C1319       C  0.88290336  0.70159220  0.28944100     0.13500
C1320       C  0.91696970  0.70188787  0.29478359    -0.20800
C1321       C  0.93794711  0.71812142  0.27314835    -0.07300
C1322       C  0.92562698  0.73024041  0.24311915     0.13500
C1323       C  0.94802119  0.74620803  0.21853711    -0.24200
H1324       H  0.88124654  0.74179758  0.21629702     0.14800
H1325       H  0.92680331  0.69227595  0.31762480     0.14900
C1326       C  0.86054124  0.68567903  0.31408662    -0.24100
H1327       H  0.93425005  0.75469215  0.19650840     0.05100
H1328       H  0.96764556  0.72872691  0.20940014     0.08300
H1329       H  0.95970259  0.76733498  0.23083605     0.08300
H1330       H  0.84596869  0.66706823  0.30075179     0.08300
H1331       H  0.84341696  0.70387061  0.32626730     0.08300
H1332       H  0.87477712  0.67381080  0.33402295     0.05100
C1333       C  0.95985859  0.78205326  0.37925037    -0.20800
C1334       C  0.98809723  0.78593832  0.35898496    -0.07300
C1335       C  0.01212144  0.80830242  0.36962881     0.13500
C1336       C  0.00865137  0.82359732  0.40155630    -0.20800
C1337       C  0.98209599  0.81679951  0.42294213    -0.07300
C1338       C  0.95652290  0.79716611  0.41095063     0.13500
C1339       C  0.92566720  0.79093749  0.43127713    -0.24200
H1340       H  0.94077516  0.76579556  0.37113921     0.14800
H1341       H  0.02794173  0.83906346  0.41075874     0.14900
C1342       C  0.04154098  0.81607169  0.34792294    -0.24100
H1343       H  0.90352843  0.79781526  0.41676778     0.05100
H1344       H  0.92420648  0.80497713  0.45537747     0.08300
H1345       H  0.92469579  0.76489997  0.43662789     0.08300
H1346       H  0.03307361  0.82354673  0.32295094     0.08300
H1347       H  0.05867836  0.79484419  0.34499854     0.08300
H1348       H  0.05582488  0.83611102  0.35914953     0.05100
C1349       C  0.01702399  0.82624367  0.67129315    -0.20800
C1350       C  0.98589212  0.82320013  0.68720912    -0.07300
C1351       C  0.95770079  0.83746375  0.67212539     0.13500
C1352       C  0.96066841  0.84877877  0.63938655    -0.20800
C1353       C  0.99097033  0.84677356  0.62183982    -0.07300
C1354       C  0.01975704  0.83742325  0.63865747     0.13500
C1355       C  0.05305559  0.83685868  0.62109513    -0.24200
H1356       H  0.03920661  0.81715419  0.68298320     0.14800
H1357       H  0.93865986  0.85639373  0.62630999     0.14900
C1358       C  0.92424062  0.84010129  0.68941288    -0.24100
H1359       H  0.07320525  0.82900123  0.63780309     0.05100
H1360       H  0.05854191  0.86138536  0.61262235     0.08300
H1361       H  0.05297739  0.81992491  0.59900930     0.08300
H1362       H  0.92666561  0.85131777  0.71488764     0.08300
H1363       H  0.91313751  0.81604679  0.69099794     0.08300
H1364       H  0.90667539  0.85543240  0.67544257     0.05100
C1365       C  0.77686529  0.77196837  0.42338473    -0.20800
C1366       C  0.74987938  0.78846527  0.43919018    -0.07300
C1367       C  0.72304115  0.79882618  0.41957584     0.13500
C1368       C  0.72482500  0.79385126  0.38446222    -0.20800
C1369       C  0.75306698  0.77950611  0.36854459    -0.07300
C1370       C  0.77886511  0.76741030  0.38845269     0.13500
C1371       C  0.80845365  0.74934143  0.37308480    -0.24200
H1372       H  0.79733211  0.76386720  0.43847976     0.14800
H1373       H  0.70483411  0.80290241  0.36930855     0.14900
C1374       C  0.69318032  0.81680333  0.43445559    -0.24100
H1375       H  0.82503464  0.73966233  0.39247499     0.05100
H1376       H  0.82328625  0.76542638  0.35748118     0.08300
H1377       H  0.79981649  0.72870967  0.35745417     0.08300
H1378       H  0.69115320  0.84103720  0.42359329     0.08300
H1379       H  0.69416745  0.82011007  0.46206672     0.08300
H1380       H  0.67056430  0.80331828  0.42837499     0.05100
C1381       C  0.83820131  0.85568564  0.49711802    -0.20800
C1382       C  0.82183131  0.83775626  0.52132237    -0.07300
C1383       C  0.83942696  0.82768606  0.54991591     0.13500
C1384       C  0.87328680  0.83311937  0.55153125    -0.20800
C1385       C  0.89003742  0.84803497  0.52566919    -0.07300
C1386       C  0.87224031  0.86103366  0.49899111     0.13500
C1387       C  0.88932036  0.87861388  0.47146894    -0.24200
H1388       H  0.82469643  0.86393870  0.47564842     0.14800
H1389       H  0.88736082  0.82375099  0.57214847     0.14900
C1390       C  0.82397787  0.80901307  0.57775941    -0.24100
H1391       H  0.87166552  0.88651365  0.45216569     0.05100
H1392       H  0.90852848  0.86269455  0.45887472     0.08300
H1393       H  0.90111969  0.90039156  0.48223816     0.08300
H1394       H  0.81444132  0.78588587  0.56757962     0.08300
H1395       H  0.80369984  0.82364156  0.59030555     0.08300
H1396       H  0.84206992  0.80295990  0.59738397     0.05100
C1397       C  0.06129856  0.73026615  0.73380261    -0.20800
C1398       C  0.04419485  0.74918734  0.75863528    -0.07300
C1399       C  0.06222145  0.76202622  0.78583868     0.13500
C1400       C  0.09698756  0.75738818  0.78646728    -0.20800
C1401       C  0.11436648  0.74114436  0.75984861    -0.07300
C1402       C  0.09605052  0.72633367  0.73390858     0.13500
C1403       C  0.11324581  0.70721606  0.70564657    -0.24200
H1404       H  0.04767577  0.72081019  0.71262495     0.14800
H1405       H  0.11086977  0.76886160  0.80636094     0.14900
C1406       C  0.04496542  0.78250011  0.81299187    -0.24100
H1407       H  0.09527813  0.69637871  0.68807780     0.05100
H1408       H  0.12845201  0.68737462  0.71600506     0.08300
H1409       H  0.12943257  0.72298846  0.69106873     0.08300
H1410       H  0.02563041  0.76828605  0.82533914     0.08300
H1411       H  0.03318506  0.80409074  0.80203448     0.08300
H1412       H  0.06245874  0.79082593  0.83242906     0.05100
C1413       C  0.22578138  0.61511648  0.80081410    -0.20800
C1414       C  0.23732655  0.63061311  0.77232525    -0.07300
C1415       C  0.24936473  0.61124894  0.74459749     0.13500
C1416       C  0.25170897  0.57731659  0.74685026    -0.20800
C1417       C  0.24275646  0.56195219  0.77639150    -0.07300
C1418       C  0.22853001  0.58124128  0.80324807     0.13500
C1419       C  0.21787353  0.56687242  0.83573665    -0.24200
H1420       H  0.21674127  0.62964229  0.82229842     0.14800
H1421       H  0.26335935  0.56301032  0.72649516     0.14900
C1422       C  0.26123608  0.62659004  0.71305853    -0.24100
H1423       H  0.19142864  0.57328848  0.84099996     0.05100
H1424       H  0.23297867  0.57666008  0.85653462     0.08300
H1425       H  0.22049674  0.54019525  0.83507560     0.08300
H1426       H  0.28242314  0.64226758  0.71862748     0.08300
H1427       H  0.24082552  0.64136146  0.70262876     0.08300
H1428       H  0.26948888  0.60823443  0.69359579     0.05100
C1429       C  0.42799144  0.75965573  0.75853092    -0.20800
C1430       C  0.43689227  0.79066641  0.74943943    -0.07300
C1431       C  0.41185629  0.81544168  0.74977181     0.13500
C1432       C  0.37862784  0.80791571  0.75588130    -0.20800
C1433       C  0.36935328  0.77655037  0.76282671    -0.07300
C1434       C  0.39463375  0.75233418  0.76548120     0.13500
C1435       C  0.38650873  0.71828204  0.77388694    -0.24200
H1436       H  0.44690485  0.74068037  0.75846133     0.14800
H1437       H  0.35961513  0.82669775  0.75486316     0.14900
C1438       C  0.41983132  0.85020768  0.74406860    -0.24100
H1439       H  0.40892068  0.70222517  0.77333027     0.05100
H1440       H  0.36883661  0.70834016  0.75546680     0.08300
H1441       H  0.37547700  0.71791354  0.79951837     0.08300
H1442       H  0.42712363  0.85362599  0.71756195     0.08300
H1443       H  0.44007429  0.85777155  0.76083374     0.08300
H1444       H  0.39811729  0.86656612  0.74961983     0.05100
C1445       C  0.26592062  0.79611945  0.62932241    -0.20800
C1446       C  0.24731260  0.77346577  0.64654970    -0.07300
C1447       C  0.23313582  0.74807954  0.62759891     0.13500
C1448       C  0.23599282  0.74716364  0.59222640    -0.20800
C1449       C  0.25162330  0.77163695  0.57469584    -0.07300
C1450       C  0.26763983  0.79584363  0.59375244     0.13500
C1451       C  0.28441832  0.82278833  0.57643145    -0.24200
H1452       H  0.27692988  0.81562375  0.64361804     0.14800
H1453       H  0.22280562  0.72901989  0.57798964     0.14900
C1454       C  0.21383476  0.72249716  0.64461795    -0.24100
H1455       H  0.29569480  0.83988928  0.59466615     0.05100
H1456       H  0.26619927  0.83647873  0.56157370     0.08300
H1457       H  0.30429534  0.81262287  0.55937546     0.08300
H1458       H  0.19182848  0.73352445  0.65794470     0.08300
H1459       H  0.22977220  0.71019535  0.66291790     0.08300
H1460       H  0.20502039  0.70399919  0.62633193     0.05100
C1461       C  0.21694984  0.72284053  0.89001000    -0.20800
C1462       C  0.24325118  0.73825678  0.87423629    -0.07300
C1463       C  0.26707447  0.75335691  0.89486241     0.13500
C1464       C  0.26594272  0.74971355  0.92998151    -0.20800
C1465       C  0.24166226  0.73130540  0.94530151    -0.07300
C1466       C  0.21615931  0.71885321  0.92508877     0.13500
C1467       C  0.18903652  0.69967305  0.94044189    -0.24200
H1468       H  0.19837949  0.71156285  0.87460212     0.14800
H1469       H  0.28573628  0.75905254  0.94519162     0.14900
C1470       C  0.29416965  0.77294100  0.87992511    -0.24100
H1471       H  0.17079737  0.69190295  0.92149354     0.05100
H1472       H  0.17574587  0.71467729  0.96017755     0.08300
H1473       H  0.19965328  0.67775558  0.95180955     0.08300
H1474       H  0.28313019  0.79215583  0.86460166     0.08300
H1475       H  0.31115599  0.75736385  0.86400672     0.08300
H1476       H  0.30922271  0.78470298  0.89965890     0.05100
C1477       C  0.21712422  0.90603110  0.74245341    -0.20800
C1478       C  0.24512476  0.88474272  0.74226638    -0.07300
C1479       C  0.27680952  0.89858932  0.73960948     0.13500
C1480       C  0.27931427  0.93210271  0.73525342    -0.20800
C1481       C  0.25130244  0.95285881  0.73367243    -0.07300
C1482       C  0.21983449  0.93960030  0.73813130     0.13500
C1483       C  0.18899844  0.96053221  0.73646116    -0.24200
H1484       H  0.19265858  0.89627244  0.74503037     0.14800
H1485       H  0.30355389  0.94211234  0.73151818     0.14900
C1486       C  0.30827902  0.87835304  0.73983091    -0.24100
H1487       H  0.16627437  0.94645542  0.73991474     0.05100
H1488       H  0.18781367  0.97184263  0.71166906     0.08300
H1489       H  0.18926848  0.97971054  0.75652277     0.08300
H1490       H  0.30836948  0.85996322  0.71896300     0.08300
H1491       H  0.31041782  0.86641104  0.76419943     0.08300
H1492       H  0.33058776  0.89308706  0.73661498     0.05100
C1493       C  0.60770546  0.78900622  0.78335954    -0.20800
C1494       C  0.63036295  0.77314554  0.76063952    -0.07300
C1495       C  0.61760855  0.75946145  0.73043282     0.13500
C1496       C  0.58384472  0.76398502  0.72304895    -0.20800
C1497       C  0.56187501  0.78147178  0.74479837    -0.07300
C1498       C  0.57387567  0.79349668  0.77572499     0.13500
C1499       C  0.55149541  0.81276742  0.79982299    -0.24200
H1500       H  0.61676173  0.79947972  0.80658153     0.14800
H1501       H  0.57467689  0.75480977  0.69928823     0.14900
C1502       C  0.63909782  0.74019100  0.70537734    -0.24100
H1503       H  0.56484688  0.82109335  0.82249482     0.05100
H1504       H  0.53078203  0.79769515  0.80803511     0.08300
H1505       H  0.54136051  0.83433796  0.78740509     0.08300
H1506       H  0.65231917  0.72040134  0.71808711     0.08300
H1507       H  0.65706063  0.75602804  0.69321592     0.08300
H1508       H  0.62430184  0.72905548  0.68505542     0.05100
C1509       C  0.77166164  0.61263585  0.79799203    -0.20800
C1510       C  0.76972659  0.62145828  0.76436909    -0.07300
C1511       C  0.77331791  0.59688024  0.73865980     0.13500
C1512       C  0.78107161  0.56503741  0.74730517    -0.20800
C1513       C  0.78564064  0.55711415  0.78070014    -0.07300
C1514       C  0.77970606  0.58089400  0.80644905     0.13500
C1515       C  0.78171874  0.57288133  0.84296855    -0.24200
H1516       H  0.76813770  0.63090233  0.81787423     0.14800
H1517       H  0.78539169  0.54655628  0.72775806     0.14900
C1518       C  0.76917333  0.60360776  0.70202621    -0.24100
H1519       H  0.77445039  0.59389383  0.85966418     0.05100
H1520       H  0.80732396  0.56553386  0.84929846     0.08300
H1521       H  0.76479251  0.55298792  0.84836331     0.08300
H1522       H  0.78934266  0.61898479  0.69313820     0.08300
H1523       H  0.74475554  0.61564360  0.69819488     0.08300
H1524       H  0.77026122  0.58109374  0.68614141     0.05100
C1525       C  0.73582880  0.74398228  0.60381581    -0.20800
C1526       C  0.72991788  0.76699130  0.63017278    -0.07300
C1527       C  0.71861440  0.79835111  0.62201516     0.13500
C1528       C  0.71671227  0.80649859  0.58819979    -0.20800
C1529       C  0.72664547  0.78461977  0.56220198    -0.07300
C1530       C  0.73465767  0.75249012  0.57001973     0.13500
C1531       C  0.74486390  0.72788676  0.54293431    -0.24200
H1532       H  0.74335244  0.71959146  0.60964748     0.14800
H1533       H  0.71112308  0.83129196  0.58210232     0.14900
C1534       C  0.71172828  0.82443441  0.64844713    -0.24100
H1535       H  0.75037389  0.70389340  0.55333819     0.05100
H1536       H  0.76745462  0.73568880  0.52960304     0.08300
H1537       H  0.72454941  0.72518029  0.52475300     0.08300
H1538       H  0.73442720  0.82783449  0.66314867     0.08300
H1539       H  0.69091129  0.81769927  0.66505005     0.08300
H1540       H  0.70492591  0.84787914  0.63746496     0.05100
C1541       C  0.75147834  0.69096964  0.89271522    -0.20800
C1542       C  0.74581772  0.72349607  0.88603115    -0.07300
C1543       C  0.74660076  0.74676273  0.91280536     0.13500
C1544       C  0.75418615  0.73694591  0.94534389    -0.20800
C1545       C  0.76128718  0.70447668  0.95180380    -0.07300
C1546       C  0.75883951  0.68104472  0.92511872     0.13500
C1547       C  0.76325332  0.64534235  0.93034592    -0.24200
H1548       H  0.75039453  0.67316209  0.87226501     0.14800
H1549       H  0.75597862  0.75491676  0.96552974     0.14900
C1550       C  0.74125150  0.78215587  0.90687945    -0.24100
H1551       H  0.75615991  0.63080429  0.90785208     0.05100
H1552       H  0.74732243  0.63816081  0.95161381     0.08300
H1553       H  0.78952054  0.63909612  0.93520514     0.08300
H1554       H  0.71582807  0.78669810  0.89778957     0.08300
H1555       H  0.75951107  0.79006900  0.88796708     0.08300
H1556       H  0.74424600  0.79709397  0.93020254     0.05100
C1557       C  0.73194551  0.88229850  0.72383218    -0.20800
C1558       C  0.72718885  0.87257060  0.75696644    -0.07300
C1559       C  0.72091890  0.89698487  0.78251711     0.13500
C1560       C  0.71602573  0.92919937  0.77346342    -0.20800
C1561       C  0.71699630  0.93770125  0.73988194    -0.07300
C1562       C  0.72641268  0.91432023  0.71491390     0.13500
C1563       C  0.72998029  0.92304320  0.67867289    -0.24200
H1564       H  0.73873901  0.86461083  0.70440013     0.14800
H1565       H  0.70897454  0.94748430  0.79247603     0.14900
C1566       C  0.71843910  0.88984592  0.81929146    -0.24100
H1567       H  0.73859434  0.90206082  0.66253335     0.05100
H1568       H  0.74832401  0.94233713  0.67639862     0.08300
H1569       H  0.70586881  0.93168026  0.66904880     0.08300
H1570       H  0.74146380  0.87732518  0.82721329     0.08300
H1571       H  0.69665296  0.87486735  0.82419118     0.08300
H1572       H  0.71525410  0.91220661  0.83523191     0.05100
C1573       C  0.86125381  0.76041675  0.77012245    -0.20800
C1574       C  0.85223267  0.73291833  0.75128426    -0.07300
C1575       C  0.87763140  0.71326426  0.73561323     0.13500
C1576       C  0.91095066  0.72251299  0.73759042    -0.20800
C1577       C  0.91967854  0.75122057  0.75441168    -0.07300
C1578       C  0.89448712  0.77005830  0.77136365     0.13500
C1579       C  0.90263268  0.80078167  0.79026065    -0.24200
H1580       H  0.84201423  0.77532394  0.78251654     0.14800
H1581       H  0.93006354  0.70823190  0.72422436     0.14900
C1582       C  0.86968729  0.68246625  0.71669315    -0.24100
H1583       H  0.88034949  0.81227809  0.80270959     0.05100
H1584       H  0.91311275  0.81828683  0.77283504     0.08300
H1585       H  0.92096857  0.79546992  0.80986768     0.08300
H1586       H  0.85429725  0.68781295  0.69470541     0.08300
H1587       H  0.85609629  0.66635847  0.73345758     0.08300
H1588       H  0.89244573  0.66933010  0.70731176     0.05100
loop_ 
_geom_bond_atom_site_label_1 
_geom_bond_atom_site_label_2 
_geom_bond_distance 
_geom_bond_site_symmetry_2 
_ccdc_geom_bond_type 
O1           Ni7   1.933       .  S
O1           C22   1.274       .  A
O2          Ni25   1.912       .  S
O2           C11   1.271       .  A
O3           Ni7   1.924       .  S
O3          Ni25   1.917       .  S
O3          Ni19   1.923       .  S
O3           H26   0.966       .  S
C4           O21   1.280       .  A
C4           O13   1.274       .  A
C4         C1558   1.501       .  S
O5          Ni24   1.933       .  S
O5           C11   1.273       .  A
O6          Ni24   1.930       .  S
O6            C8   1.273       .  A
Ni7          O10   1.925       .  S
Ni7          O12   1.916       .  S
C8           O18   1.271       .  A
C8         C1494   1.512       .  S
O9          Ni25   1.912       .  S
O9           C15   1.271       .  A
O10          C15   1.270       .  A
C11        C1542   1.485       .  S
O12          C14   1.274       .  A
O13         Ni24   1.921       .  S
C14          O20   1.281       .  A
C14        C1574   1.497       .  S
C15        C1510   1.493       .  S
H16          O17   0.966       .  S
O17         Ni25   1.904       .  S
O17         Ni19   1.903       .  S
O17         Ni24   1.919       .  S
O18         Ni19   1.932       .  S
Ni19         O23   1.910       .  S
Ni19         O21   1.925       .  S
O20         Ni25   1.960       .  S
C22          O23   1.268       .  A
C22        C1526   1.497       .  S
O27         Ni33   1.930       .  S
O27          C48   1.271       .  A
O28         Ni51   1.936       .  S
O28          C37   1.275       .  A
O29         Ni33   1.911       .  S
O29         Ni51   1.922       .  S
O29         Ni45   1.934       .  S
O29          H52   0.966       .  S
C30          O47   1.286       .  A
C30          O39   1.281       .  A
C30        C1478   1.519       .  S
O31         Ni50   1.937       .  S
O31          C37   1.274       .  A
O32         Ni50   1.925       .  S
O32          C34   1.272       .  A
Ni33         O36   1.929       .  S
Ni33         O38   1.917       .  S
C34          O44   1.277       .  A
C34        C1446   1.504       .  S
O35         Ni51   1.957       .  S
O35          C41   1.284       .  A
O36          C41   1.276       .  A
C37        C1401   1.495       .  S
O38          C40   1.271       .  A
O39         Ni50   1.939       .  S
C40          O46   1.281       .  A
C40        C1462   1.504       .  S
C41        C1414   1.499       .  S
H42          O43   0.966       .  S
O43         Ni51   1.928       .  S
O43         Ni45   1.913       .  S
O43         Ni50   1.910       .  S
O44         Ni45   1.956       .  S
Ni45         O49   1.931       .  S
Ni45         O47   1.950       .  S
O46         Ni51   1.959       .  S
C48          O49   1.276       .  A
C48        C1433   1.498       .  S
C53        C1529   1.474       .  S
C53          N54   1.350       .  A
C53          N58   1.366       .  A
N54          C55   1.345       .  A
C55        C1382   1.480       .  S
C55          N56   1.353       .  A
N56          C57   1.359       .  A
C57        C1366   1.479       .  S
C57          N58   1.368       .  A
C59        C1398   1.490       .  S
C59          N60   1.372   1_455  A
C59          N64   1.355       .  A
N60          C61   1.373       .  A
C61        C1577   1.493       .  S
C61          N62   1.359       .  A
N62          C63   1.355       .  A
C63        C1350   1.497       .  S
C63          N64   1.355   1_655  A
C65        C1305   1.466       .  S
C65          N66   1.359   1_455  A
C65          N70   1.358       .  A
N66          C67   1.358       .  A
C67        C1321   1.461       .  S
C67          N68   1.356       .  A
N68          C69   1.353       .  A
C69        C1334   1.485       .  S
C69          N70   1.351   1_655  A
O71         Ni79   1.932       .  S
O71          C81   1.284       .  A
O72         Ni79   1.938       .  S
O72          C82   1.284       .  A
O73         Ni79   1.913   1_455  S
O73          C83   1.280       .  A
O74         Ni79   1.914       .  S
O74          C84   1.279       .  A
O75         Ni80   1.897       .  S
O75          C84   1.279       .  A
O76         Ni80   1.901   1_455  S
O76          C83   1.279       .  A
O77         Ni80   1.893       .  S
O77          C82   1.276       .  A
O78         Ni80   1.894       .  S
O78          C81   1.277       .  A
Ni79        Ni80   2.393       .  S
C81        C1337   1.470       .  S
C82        C1353   1.468       .  S
C83        C1286   1.468       .  S
C84        C1385   1.463       .  S
C85        C1273   1.499       .  S
C85          N86   1.383       .  A
C85          N90   1.358       .  A
N86          C87   1.380       .  A
C87        C1449   1.496       .  S
C87          N88   1.348       .  A
N88          C89   1.344       .  A
C89        C1289   1.472       .  S
C89          N90   1.352       .  A
O91         Ni97   1.926       .  S
O91         C112   1.274       .  A
O92        Ni115   1.886       .  S
O92         C101   1.263       .  A
O93         Ni97   1.893       .  S
O93        Ni115   1.891       .  S
O93        Ni109   1.910       .  S
O93         H116   0.966       .  S
C94         O111   1.276       .  A
C94         O103   1.276       .  A
C94        C1238   1.472       .  S
O95        Ni114   1.922       .  S
O95         C101   1.272       .  A
O96        Ni114   1.919       .  S
O96          C98   1.271       .  A
Ni97        O100   1.926       .  S
Ni97        O102   1.924       .  S
C98         O108   1.278       .  A
C98        C1209   1.511       .  S
O99        Ni115   1.932       .  S
O99         C105   1.279       .  A
O100        C105   1.281       .  A
C101       C1222   1.461       .  S
O102        C104   1.270       .  A
O103       Ni114   1.921       .  S
C104        O110   1.275       .  A
C104       C1270   1.501       .  S
C105       C1254   1.507       .  S
H106        O107   0.966       .  S
O107       Ni115   1.909       .  S
O107       Ni109   1.902       .  S
O107       Ni114   1.903       .  S
O108       Ni109   1.958       .  S
Ni109       O113   1.902       .  S
Ni109       O111   1.924       .  S
O110       Ni115   1.954       .  S
C112        O113   1.267       .  A
C112       C1302   1.469       .  S
O117       Ni123   1.933       .  S
O117        C138   1.276       .  A
O118       Ni141   1.898       .  S
O118        C127   1.262       .  A
O119       Ni123   1.911       .  S
O119       Ni141   1.895       .  S
O119       Ni135   1.906       .  S
O119        H142   0.966       .  S
C120        O137   1.277       .  A
C120        O129   1.277       .  A
C120       C1190   1.492       .  S
O121       Ni140   1.929       .  S
O121        C127   1.272       .  A
O122       Ni140   1.910       .  S
O122        C124   1.268       .  A
Ni123       O126   1.938       .  S
Ni123       O128   1.921       .  S
C124        O134   1.270       .  A
C124       C1369   1.484       .  S
O125       Ni141   1.902       .  S
O125        C131   1.272       .  A
O126        C131   1.278       .  A
C127       C1318   1.461       .  S
O128        C130   1.271       .  A
O129       Ni140   1.928       .  S
C130        O136   1.270       .  A
C130       C1142   1.503       .  S
C131       C1174   1.481       .  S
H132        O133   0.968       .  S
O133       Ni141   1.910       .  S
O133       Ni135   1.892       .  S
O133       Ni140   1.903       .  S
O134       Ni135   1.929       .  S
Ni135       O139   1.880       .  S
Ni135       O137   1.924       .  S
O136       Ni141   1.929       .  S
C138        O139   1.261       .  A
C138       C1158   1.476       .  S
C143       C1545   1.492       .  S
C143        N144   1.371   1_556  A
C143        N148   1.356       .  A
N144        C145   1.369       .  A
C145       C1145   1.484       .  S
C145        N146   1.355       .  A
N146        C147   1.350       .  A
C147       C1129   1.473       .  S
C147        N148   1.350   1_554  A
C149       C1513   1.475       .  S
C149        N150   1.365       .  A
C149        N154   1.355       .  A
N150        C151   1.365       .  A
C151       C1094   1.489       .  S
C151        N152   1.357       .  A
N152        C153   1.353       .  A
C153       C1110   1.485       .  S
C153        N154   1.353       .  A
C155       C1062   1.490       .  S
C155        N156   1.352       .  A
C155        N160   1.367       .  A
N156        C157   1.352       .  A
C157       C1078   1.498       .  S
C157        N158   1.359   1_556  A
N158        C159   1.366       .  A
C159       C1046   1.507       .  S
C159        N160   1.370   1_554  A
O161       Ni169   1.899   1_554  S
O161        C171   1.279       .  A
O162       Ni169   1.895       .  S
O162        C172   1.277       .  A
O163       Ni169   1.884       .  S
O163        C173   1.275       .  A
O164       Ni169   1.889       .  S
O164        C174   1.275   1_556  A
O165       Ni170   1.934       .  S
O165        C174   1.284       .  A
O166       Ni170   1.935   1_556  S
O166        C173   1.284       .  A
O167       Ni170   1.924   1_556  S
O167        C172   1.280       .  A
O168       Ni170   1.916       .  S
O168        C171   1.280       .  A
Ni169      Ni170   2.394   1_556  S
C171       C1030   1.469       .  S
C172       C1113   1.460       .  S
C173       C1081   1.464       .  S
C174       C1126   1.466       .  S
C175       C1177   1.488       .  S
C175        N176   1.365       .  A
C175        N180   1.359       .  A
N176        C177   1.361       .  A
C177       C1014   1.465       .  S
C177        N178   1.351       .  A
N178        C179   1.348       .  A
C179       C1033   1.475       .  S
C179        N180   1.354       .  A
O181       Ni187   1.938       .  S
O181        C202   1.276       .  A
O182       Ni205   1.915       .  S
O182        C191   1.271       .  A
O183       Ni187   1.902       .  S
O183       Ni205   1.904       .  S
O183       Ni199   1.913       .  S
O183        H206   0.966       .  S
C184        O201   1.278       .  A
C184        O193   1.280       .  A
C184        C966   1.501       .  S
O185       Ni204   1.924       .  S
O185        C191   1.275       .  A
O186       Ni204   1.932       .  S
O186        C188   1.272       .  A
Ni187       O190   1.938       .  S
Ni187       O192   1.929       .  S
C188        O198   1.283       .  A
C188        C998   1.540       .  S
O189       Ni205   1.936       .  S
O189        C195   1.282       .  A
O190        C195   1.282       .  A
C191       C1017   1.493       .  S
O192        C194   1.272       .  A
O193       Ni204   1.926       .  S
C194        O200   1.281       .  A
C194        C982   1.525       .  S
C195       C1049   1.511       .  S
H196        O197   0.966       .  S
O197       Ni205   1.916       .  S
O197       Ni199   1.897       .  S
O197       Ni204   1.899       .  S
O198       Ni199   1.974       .  S
Ni199       O203   1.907       .  S
Ni199       O201   1.923       .  S
O200       Ni205   1.973       .  S
C202        O203   1.268       .  A
C202        C950   1.472       .  S
O207       Ni213   1.949       .  S
O207        C228   1.280       .  A
O208       Ni231   1.916       .  S
O208        C217   1.268       .  A
O209       Ni213   1.909       .  S
O209       Ni231   1.900       .  S
O209       Ni225   1.917       .  S
O209        H232   0.966       .  S
C210        O227   1.282       .  A
C210        O219   1.278       .  A
C210        C886   1.493       .  S
O211       Ni230   1.910       .  S
O211        C217   1.266       .  A
O212       Ni230   1.907       .  S
O212        C214   1.265       .  A
Ni213       O216   1.955       .  S
Ni213       O218   1.915       .  S
C214        O224   1.268       .  A
C214        C902   1.476       .  S
O215       Ni231   1.892       .  S
O215        C221   1.268       .  A
O216        C221   1.282       .  A
C217        C934   1.469       .  S
O218        C220   1.270       .  A
O219       Ni230   1.911       .  S
C220        O226   1.279       .  A
C220       C1065   1.505       .  S
C221       C1097   1.499       .  S
H222        O223   0.966       .  S
O223       Ni231   1.902       .  S
O223       Ni225   1.876       .  S
O223       Ni230   1.891       .  S
O224       Ni225   1.932       .  S
Ni225       O229   1.871       .  S
Ni225       O227   1.936       .  S
O226       Ni231   1.946       .  S
C228        O229   1.261       .  A
C228        C918   1.483       .  S
C233       C1561   1.471       .  S
C233        N234   1.354       .  A
C233        N238   1.363       .  A
N234        C235   1.352       .  A
C235        C870   1.468       .  S
C235        N236   1.350   1_565  A
N236        C237   1.354       .  A
C237        C889   1.477       .  S
C237        N238   1.365   1_545  A
C239       C1430   1.497       .  S
C239        N240   1.350       .  A
C239        N244   1.372       .  A
N240        C241   1.350       .  A
C241        C854   1.492       .  S
C241        N242   1.357       .  A
N242        C243   1.364       .  A
C243       C1497   1.496       .  S
C243        N244   1.376       .  A
C245       C1481   1.501       .  S
C245        N246   1.376   1_565  A
C245        N250   1.354       .  A
N246        C247   1.377       .  A
C247        C822   1.498       .  S
C247        N248   1.359       .  A
N248        C249   1.355       .  A
C249        C838   1.494       .  S
C249        N250   1.354   1_545  A
O251       Ni259   1.897       .  S
O251        C261   1.276       .  A
O252       Ni259   1.892       .  S
O252        C262   1.276       .  A
O253       Ni259   1.901       .  S
O253        C263   1.278       .  A
O254       Ni259   1.906   1_545  S
O254        C264   1.279       .  A
O255       Ni260   1.923   1_545  S
O255        C264   1.282       .  A
O256       Ni260   1.931       .  S
O256        C263   1.282       .  A
O257       Ni260   1.933       .  S
O257        C262   1.283       .  A
O258       Ni260   1.918       .  S
O258        C261   1.282       .  A
Ni259      Ni260   2.392       .  S
C261        C873   1.472       .  S
C262        C841   1.465   1_565  S
C263        C857   1.470       .  S
C264        C809   1.474       .  S
C265        C793   1.456       .  S
C265        N266   1.350       .  A
C265        N270   1.356       .  A
N266        C267   1.354       .  A
C267        C921   1.478       .  S
C267        N268   1.361       .  A
N268        C269   1.359       .  A
C269        C806   1.494       .  S
C269        N270   1.354       .  A
O271       Ni277   1.914       .  S
O271        C292   1.267       .  A
O272       Ni295   1.892       .  S
O272        C281   1.267       .  A
O273       Ni277   1.891       .  S
O273       Ni295   1.883       .  S
O273       Ni289   1.909       .  S
O273        H296   0.966       .  S
C274        O291   1.272       .  A
C274        O283   1.278       .  A
C274        C774   1.471       .  S
O275       Ni294   1.928       .  S
O275        C281   1.273       .  A
O276       Ni294   1.933       .  S
O276        C278   1.273       .  A
Ni277       O280   1.915       .  S
Ni277       O282   1.911       .  S
C278        O288   1.280       .  A
C278        C761   1.527       .  S
O279       Ni295   1.932       .  S
O279        C285   1.285       .  A
O280        C285   1.280       .  A
C281        C729   1.464       .  S
O282        C284   1.267       .  A
O283       Ni294   1.936       .  S
C284        O290   1.277       .  A
C284        C825   1.510       .  S
C285        C742   1.474       .  S
H286        O287   0.966       .  S
O287       Ni295   1.928       .  S
O287       Ni289   1.897       .  S
O287       Ni294   1.910       .  S
O288       Ni289   1.954       .  S
Ni289       O293   1.905       .  S
Ni289       O291   1.905       .  S
O290       Ni295   1.959       .  S
C292        O293   1.265       .  A
C292        C790   1.457       .  S
C297       C1465   1.494       .  S
C297        N298   1.377   1_556  A
C297        N302   1.356       .  A
N298        C299   1.377       .  A
C299       C1206   1.494       .  S
C299        N300   1.354       .  A
N300        C301   1.350       .  A
C301        C710   1.479       .  S
C301        N302   1.353   1_554  A
C303       C1417   1.497       .  S
C303        N304   1.356       .  A
C303        N308   1.378       .  A
N304        C305   1.351       .  A
C305        C694   1.495       .  S
C305        N306   1.356       .  A
N306        C307   1.357       .  A
C307        C758   1.508       .  S
C307        N308   1.378       .  A
C309        C777   1.487       .  S
C309        N310   1.360   1_556  A
C309        N314   1.355       .  A
N310        C311   1.363       .  A
C311        C665   1.473       .  S
C311        N312   1.358       .  A
N312        C313   1.354       .  A
C313        C678   1.485       .  S
C313        N314   1.355   1_554  A
O315       Ni323   1.912       .  S
O315        C325   1.280       .  A
O316       Ni323   1.902       .  S
O316        C326   1.280       .  A
O317       Ni323   1.895   1_554  S
O317        C327   1.277       .  A
O318       Ni323   1.888       .  S
O318        C328   1.275       .  A
O319       Ni324   1.937       .  S
O319        C328   1.284       .  A
O320       Ni324   1.930   1_554  S
O320        C327   1.284       .  A
O321       Ni324   1.923       .  S
O321        C326   1.280       .  A
O322       Ni324   1.913       .  S
O322        C325   1.281       .  A
Ni323      Ni324   2.392       .  S
C325        C713   1.474       .  S
C326        C681   1.464       .  S
C327        C646   1.474       .  S
C328        C697   1.467       .  S
C329       C1241   1.475       .  S
C329        N330   1.356       .  A
C329        N334   1.363       .  A
N330        C331   1.354       .  A
C331        C649   1.485       .  S
C331        N332   1.352       .  A
N332        C333   1.355       .  A
C333        C630   1.469       .  S
C333        N334   1.363       .  A
C335       C1161   1.464       .  S
C335        N336   1.354       .  A
C335        N340   1.355       .  A
N336        C337   1.352       .  A
C337       C1225   1.456       .  S
C337        N338   1.352       .  A
N338        C339   1.354       .  A
C339        C614   1.478       .  S
C339        N340   1.352       .  A
C341       C1193   1.508       .  S
C341        N342   1.367       .  A
C341        N346   1.369       .  A
N342        C343   1.362   1_565  A
C343        C598   1.498       .  S
C343        N344   1.346       .  A
N344        C345   1.347       .  A
C345        C953   1.469       .  S
C345        N346   1.359   1_545  A
C347        C566   1.469       .  S
C347        N348   1.347       .  A
C347        N352   1.358   1_545  A
N348        C349   1.350       .  A
C349        C582   1.487       .  S
C349        N350   1.362   1_545  A
N350        C351   1.369       .  A
C351       C1257   1.500       .  S
C351        N352   1.367       .  A
O353       Ni361   1.892       .  S
O353        C363   1.276   1_545  A
O354       Ni361   1.890       .  S
O354        C364   1.277       .  A
O355       Ni361   1.896       .  S
O355        C365   1.277       .  A
O356       Ni361   1.893       .  S
O356        C366   1.277       .  A
O357       Ni362   1.932       .  S
O357        C366   1.283       .  A
O358       Ni362   1.932       .  S
O358        C365   1.284       .  A
O359       Ni362   1.935       .  S
O359        C364   1.282       .  A
O360       Ni362   1.916   1_565  S
O360        C363   1.281       .  A
Ni361      Ni362   2.391       .  S
C363        C617   1.459       .  S
C364        C550   1.465       .  S
C365        C585   1.481       .  S
C366        C601   1.472       .  S
C367        C985   1.511       .  S
C367        N368   1.355       .  A
C367        N372   1.383       .  A
N368        C369   1.352       .  A
C369        C553   1.497       .  S
C369        N370   1.357       .  A
N370        C371   1.358       .  A
C371        C537   1.512       .  S
C371        N372   1.384       .  A
C373        C969   1.480       .  S
C373        N374   1.357       .  A
C373        N378   1.368       .  A
N374        C375   1.352       .  A
C375        C518   1.471       .  S
C375        N376   1.350       .  A
N376        C377   1.354       .  A
C377        C905   1.475       .  S
C377        N378   1.365       .  A
C379        C937   1.466       .  S
C379        N380   1.358       .  A
C379        N384   1.354       .  A
N380        C381   1.356       .  A
C381        C502   1.498       .  S
C381        N382   1.359   1_655  A
N382        C383   1.357       .  A
C383        C726   1.463       .  S
C383        N384   1.355   1_455  A
C385       C1001   1.517       .  S
C385        N386   1.358       .  A
C385        N390   1.384       .  A
N386        C387   1.358       .  A
C387        C489   1.496       .  S
C387        N388   1.356   1_655  A
N388        C389   1.360       .  A
C389        C470   1.519       .  S
C389        N390   1.384   1_455  A
O391       Ni399   1.942   1_655  S
O391        C401   1.286   1_655  A
O392       Ni399   1.940       .  S
O392        C402   1.285       .  A
O393       Ni399   1.914   1_655  S
O393        C403   1.280       .  A
O394       Ni399   1.922       .  S
O394        C404   1.279       .  A
O395       Ni400   1.902       .  S
O395        C404   1.279       .  A
O396       Ni400   1.906   1_655  S
O396        C403   1.279       .  A
O397       Ni400   1.891       .  S
O397        C402   1.275       .  A
O398       Ni400   1.895       .  S
O398        C401   1.276       .  A
Ni399      Ni400   2.393       .  S
C401        C486   1.473   1_455  S
C402        C505   1.469       .  S
C403        C521   1.471       .  S
C404        C454   1.462       .  S
C405        C441   1.477       .  S
C405        N406   1.358       .  A
C405        N410   1.353       .  A
N406        C407   1.360       .  A
C407        C745   1.472       .  S
C407        N408   1.359       .  A
N408        C409   1.356       .  A
C409        C457   1.491       .  S
C409        N410   1.353       .  A
O411       Ni417   1.931       .  S
O411        C432   1.275       .  A
O412       Ni435   1.906       .  S
O412        C421   1.266       .  A
O413       Ni417   1.909       .  S
O413       Ni435   1.898       .  S
O413       Ni429   1.914       .  S
O413        H436   0.966       .  S
C414        O431   1.281       .  A
C414        O423   1.279       .  A
C414        C662   1.479       .  S
O415       Ni434   1.937       .  S
O415        C421   1.274       .  A
O416       Ni434   1.924       .  S
O416        C418   1.272       .  A
Ni417       O420   1.923       .  S
Ni417       O422   1.942       .  S
C418        O428   1.284       .  A
C418        C534   1.525       .  S
O419       Ni435   1.908       .  S
O419        C425   1.275       .  A
O420        C425   1.277       .  A
C421        C569   1.473       .  S
O422        C424   1.274       .  A
O423       Ni434   1.926       .  S
C424        O430   1.281       .  A
C424        C473   1.538       .  S
C425        C438   1.462       .  S
H426        O427   0.966       .  S
O427       Ni435   1.909       .  S
O427       Ni429   1.900       .  S
O427       Ni434   1.903       .  S
O428       Ni429   1.975       .  S
Ni429       O433   1.909       .  S
Ni429       O431   1.920       .  S
O430       Ni435   1.961       .  S
C432        O433   1.272       .  A
C432        C633   1.477       .  S
C437        C438   1.403       .  A
C437        C442   1.406       .  A
C437        H444   1.084       .  S
C438        C439   1.406       .  A
C439        C440   1.396       .  A
C439        C446   1.509       .  S
C440        C441   1.408       .  A
C440        H445   1.084       .  S
C441        C442   1.414       .  A
C442        C443   1.506       .  S
C443        H447   1.111       .  S
C443        H448   1.111       .  S
C443        H449   1.109       .  S
C446        H450   1.110       .  S
C446        H451   1.111       .  S
C446        H452   1.111       .  S
C453        C454   1.399       .  A
C453        C458   1.402       .  A
C453        H460   1.082       .  S
C454        C455   1.405       .  A
C455        C456   1.398       .  A
C455        C462   1.507       .  S
C456        C457   1.411       .  A
C456        H461   1.084       .  S
C457        C458   1.418       .  A
C458        C459   1.506       .  S
C459        H463   1.111       .  S
C459        H464   1.111       .  S
C459        H465   1.108       .  S
C462        H466   1.110       .  S
C462        H467   1.110       .  S
C462        H468   1.111       .  S
C469        C470   1.406       .  A
C469        C474   1.426       .  A
C469        H476   1.084       .  S
C470        C471   1.421       .  A
C471        C472   1.420       .  A
C471        C478   1.507       .  S
C472        C473   1.412       .  A
C472        H477   1.083       .  S
C473        C474   1.433       .  A
C474        C475   1.507       .  S
C475        H479   1.111       .  S
C475        H480   1.110       .  S
C475        H481   1.110       .  S
C478        H482   1.110       .  S
C478        H483   1.106       .  S
C478        H484   1.111       .  S
C485        C486   1.399   1_455  A
C485        C490   1.410       .  A
C485        H492   1.083       .  S
C486        C487   1.410       .  A
C487        C488   1.401       .  A
C487        C494   1.508       .  S
C488        C489   1.407       .  A
C488        H493   1.083       .  S
C489        C490   1.423   1_655  A
C490        C491   1.506       .  S
C491        H495   1.111       .  S
C491        H496   1.108       .  S
C491        H497   1.110       .  S
C494        H498   1.109       .  S
C494        H499   1.109       .  S
C494        H500   1.111       .  S
C501        C502   1.410   1_455  A
C501        C506   1.401       .  A
C501        H508   1.083       .  S
C502        C503   1.425       .  A
C503        C504   1.407       .  A
C503        C510   1.508       .  S
C504        C505   1.399   1_655  A
C504        H509   1.084       .  S
C505        C506   1.407       .  A
C506        C507   1.506       .  S
C507        H511   1.111       .  S
C507        H512   1.110       .  S
C507        H513   1.110       .  S
C510        H514   1.109       .  S
C510        H515   1.110       .  S
C510        H516   1.111       .  S
C517        C518   1.403       .  A
C517        C522   1.398       .  A
C517        H524   1.084       .  S
C518        C519   1.412       .  A
C519        C520   1.402       .  A
C519        C526   1.507       .  S
C520        C521   1.404       .  A
C520        H525   1.084       .  S
C521        C522   1.413       .  A
C522        C523   1.509       .  S
C523        H527   1.111       .  S
C523        H528   1.109       .  S
C523        H529   1.110       .  S
C526        H530   1.109       .  S
C526        H531   1.110       .  S
C526        H532   1.111       .  S
C533        C534   1.412       .  A
C533        C538   1.421       .  A
C533        H540   1.084       .  S
C534        C535   1.425       .  A
C535        C536   1.423       .  A
C535        C542   1.506       .  S
C536        C537   1.409       .  A
C536        H541   1.084       .  S
C537        C538   1.418       .  A
C538        C539   1.506       .  S
C539        H543   1.111       .  S
C539        H544   1.110       .  S
C539        H545   1.110       .  S
C542        H546   1.107       .  S
C542        H547   1.110       .  S
C542        H548   1.111       .  S
C549        C550   1.398       .  A
C549        C554   1.405       .  A
C549        H556   1.085       .  S
C550        C551   1.405       .  A
C551        C552   1.403       .  A
C551        C558   1.505       .  S
C552        C553   1.410       .  A
C552        H557   1.083       .  S
C553        C554   1.425       .  A
C554        C555   1.509       .  S
C555        H559   1.111       .  S
C555        H560   1.109       .  S
C555        H561   1.110       .  S
C558        H562   1.108       .  S
C558        H563   1.110       .  S
C558        H564   1.111       .  S
C565        C566   1.402       .  A
C565        C570   1.405       .  A
C565        H572   1.084       .  S
C566        C567   1.413       .  A
C567        C568   1.404       .  A
C567        C574   1.507       .  S
C568        C569   1.401       .  A
C568        H573   1.084       .  S
C569        C570   1.412       .  A
C570        C571   1.507       .  S
C571        H575   1.111       .  S
C571        H576   1.110       .  S
C571        H577   1.110       .  S
C574        H578   1.110       .  S
C574        H579   1.110       .  S
C574        H580   1.111       .  S
C581        C582   1.406       .  A
C581        C586   1.395       .  A
C581        H588   1.084       .  S
C582        C583   1.414   1_545  A
C583        C584   1.411   1_565  A
C583        C590   1.506       .  S
C584        C585   1.409       .  A
C584        H589   1.084   1_545  S
C585        C586   1.415       .  A
C586        C587   1.512       .  S
C587        H591   1.111       .  S
C587        H592   1.107       .  S
C587        H593   1.108       .  S
C590        H594   1.111       .  S
C590        H595   1.109       .  S
C590        H596   1.111       .  S
C597        C598   1.409   1_565  A
C597        C602   1.406       .  A
C597        H604   1.082       .  S
C598        C599   1.430       .  A
C599        C600   1.400       .  A
C599        C606   1.512       .  S
C600        C601   1.396       .  A
C600        H605   1.085       .  S
C601        C602   1.411   1_545  A
C602        C603   1.507       .  S
C603        H607   1.111       .  S
C603        H608   1.110       .  S
C603        H609   1.110       .  S
C606        H610   1.110       .  S
C606        H611   1.110       .  S
C606        H612   1.111       .  S
C613        C614   1.408       .  A
C613        C618   1.396       .  A
C613        H620   1.081       .  S
C614        C615   1.419       .  A
C615        C616   1.399       .  A
C615        C622   1.509       .  S
C616        C617   1.400       .  A
C616        H621   1.085       .  S
C617        C618   1.406       .  A
C618        C619   1.507       .  S
C619        H623   1.111       .  S
C619        H624   1.109       .  S
C619        H625   1.109       .  S
C622        H626   1.109       .  S
C622        H627   1.110       .  S
C622        H628   1.111       .  S
C629        C630   1.400       .  A
C629        C634   1.402       .  A
C629        H636   1.084       .  S
C630        C631   1.411       .  A
C631        C632   1.406       .  A
C631        C638   1.506       .  S
C632        C633   1.403       .  A
C632        H637   1.084       .  S
C633        C634   1.415       .  A
C634        C635   1.507       .  S
C635        H639   1.111       .  S
C635        H640   1.106       .  S
C635        H641   1.110       .  S
C638        H642   1.111       .  S
C638        H643   1.110       .  S
C638        H644   1.111       .  S
C645        C646   1.402       .  A
C645        C650   1.401       .  A
C645        H652   1.085       .  S
C646        C647   1.410       .  A
C647        C648   1.403       .  A
C647        C654   1.506       .  S
C648        C649   1.408       .  A
C648        H653   1.084       .  S
C649        C650   1.419       .  A
C650        C651   1.510       .  S
C651        H655   1.111       .  S
C651        H656   1.110       .  S
C651        H657   1.111       .  S
C654        H658   1.110       .  S
C654        H659   1.110       .  S
C654        H660   1.111       .  S
C661        C662   1.404       .  A
C661        C666   1.405       .  A
C661        H668   1.084       .  S
C662        C663   1.418       .  A
C663        C664   1.402       .  A
C663        C670   1.510       .  S
C664        C665   1.400       .  A
C664        H669   1.084       .  S
C665        C666   1.413       .  A
C666        C667   1.507       .  S
C667        H671   1.110       .  S
C667        H672   1.111       .  S
C667        H673   1.111       .  S
C670        H674   1.109       .  S
C670        H675   1.110       .  S
C670        H676   1.111       .  S
C677        C678   1.407   1_556  A
C677        C682   1.398       .  A
C677        H684   1.085       .  S
C678        C679   1.420       .  A
C679        C680   1.404       .  A
C679        C686   1.508       .  S
C680        C681   1.400   1_554  A
C680        H685   1.085       .  S
C681        C682   1.405       .  A
C682        C683   1.501       .  S
C683        H687   1.110       .  S
C683        H688   1.110       .  S
C683        H689   1.110       .  S
C686        H690   1.110       .  S
C686        H691   1.110       .  S
C686        H692   1.111       .  S
C693        C694   1.408       .  A
C693        C698   1.399       .  A
C693        H700   1.084       .  S
C694        C695   1.426       .  A
C695        C696   1.407       .  A
C695        C702   1.508       .  S
C696        C697   1.399       .  A
C696        H701   1.085       .  S
C697        C698   1.407       .  A
C698        C699   1.504       .  S
C699        H703   1.111       .  S
C699        H704   1.109       .  S
C699        H705   1.110       .  S
C702        H706   1.110       .  S
C702        H707   1.110       .  S
C702        H708   1.111       .  S
C709        C710   1.405   1_556  A
C709        C714   1.402       .  A
C709        H716   1.084       .  S
C710        C711   1.417       .  A
C711        C712   1.401       .  A
C711        C718   1.509       .  S
C712        C713   1.402   1_554  A
C712        H717   1.084       .  S
C713        C714   1.413       .  A
C714        C715   1.508       .  S
C715        H719   1.111       .  S
C715        H720   1.109       .  S
C715        H721   1.110       .  S
C718        H722   1.109       .  S
C718        H723   1.110       .  S
C718        H724   1.111       .  S
C725        C726   1.398       .  A
C725        C730   1.399       .  A
C725        H732   1.084       .  S
C726        C727   1.414       .  A
C727        C728   1.402       .  A
C727        C734   1.507       .  S
C728        C729   1.399       .  A
C728        H733   1.084       .  S
C729        C730   1.413       .  A
C730        C731   1.508       .  S
C731        H735   1.111       .  S
C731        H736   1.111       .  S
C731        H737   1.108       .  S
C734        H738   1.110       .  S
C734        H739   1.111       .  S
C734        H740   1.111       .  S
C741        C742   1.402       .  A
C741        C746   1.406       .  A
C741        H748   1.084       .  S
C742        C743   1.416       .  A
C743        C744   1.399       .  A
C743        C750   1.509       .  S
C744        C745   1.399       .  A
C744        H749   1.085       .  S
C745        C746   1.414       .  A
C746        C747   1.506       .  S
C747        H751   1.111       .  S
C747        H752   1.110       .  S
C747        H753   1.110       .  S
C750        H754   1.109       .  S
C750        H755   1.109       .  S
C750        H756   1.109       .  S
C757        C758   1.404       .  A
C757        C762   1.422       .  A
C757        H764   1.084       .  S
C758        C759   1.421       .  A
C759        C760   1.412       .  A
C759        C766   1.508       .  S
C760        C761   1.410       .  A
C760        H765   1.084       .  S
C761        C762   1.432       .  A
C762        C763   1.507       .  S
C763        H767   1.111       .  S
C763        H768   1.110       .  S
C763        H769   1.110       .  S
C766        H770   1.110       .  S
C766        H771   1.108       .  S
C766        H772   1.111       .  S
C773        C774   1.403       .  A
C773        C778   1.409       .  A
C773        H780   1.084       .  S
C774        C775   1.407       .  A
C775        C776   1.400       .  A
C775        C782   1.508       .  S
C776        C777   1.408       .  A
C776        H781   1.084       .  S
C777        C778   1.417       .  A
C778        C779   1.506       .  S
C779        H783   1.111       .  S
C779        H784   1.110       .  S
C779        H785   1.110       .  S
C782        H786   1.111       .  S
C782        H787   1.110       .  S
C782        H788   1.111       .  S
C789        C790   1.401       .  A
C789        C794   1.397       .  A
C789        H796   1.085       .  S
C790        C791   1.411       .  A
C791        C792   1.400       .  A
C791        C798   1.507       .  S
C792        C793   1.399       .  A
C792        H797   1.084       .  S
C793        C794   1.407       .  A
C794        C795   1.507       .  S
C795        H799   1.111       .  S
C795        H800   1.110       .  S
C795        H801   1.110       .  S
C798        H802   1.110       .  S
C798        H803   1.110       .  S
C798        H804   1.111       .  S
C805        C806   1.409       .  A
C805        C810   1.402       .  A
C805        H812   1.084       .  S
C806        C807   1.424       .  A
C807        C808   1.405       .  A
C807        C814   1.509       .  S
C808        C809   1.400       .  A
C808        H813   1.085       .  S
C809        C810   1.410       .  A
C810        C811   1.507       .  S
C811        H815   1.111       .  S
C811        H816   1.110       .  S
C811        H817   1.109       .  S
C814        H818   1.110       .  S
C814        H819   1.110       .  S
C814        H820   1.111       .  S
C821        C822   1.406       .  A
C821        C826   1.418       .  A
C821        H828   1.084       .  S
C822        C823   1.415       .  A
C823        C824   1.414       .  A
C823        C830   1.506       .  S
C824        C825   1.409       .  A
C824        H829   1.084       .  S
C825        C826   1.422       .  A
C826        C827   1.507       .  S
C827        H831   1.111       .  S
C827        H832   1.110       .  S
C827        H833   1.108       .  S
C830        H834   1.110       .  S
C830        H835   1.110       .  S
C830        H836   1.111       .  S
C837        C838   1.411   1_565  A
C837        C842   1.401       .  A
C837        H844   1.084       .  S
C838        C839   1.422       .  A
C839        C840   1.405       .  A
C839        C846   1.507       .  S
C840        C841   1.401       .  A
C840        H845   1.085       .  S
C841        C842   1.405   1_545  A
C842        C843   1.505       .  S
C843        H847   1.111       .  S
C843        H848   1.109       .  S
C843        H849   1.110       .  S
C846        H850   1.110       .  S
C846        H851   1.109       .  S
C846        H852   1.111       .  S
C853        C854   1.411       .  A
C853        C858   1.400       .  A
C853        H860   1.084       .  S
C854        C855   1.419       .  A
C855        C856   1.408       .  A
C855        C862   1.508       .  S
C856        C857   1.403       .  A
C856        H861   1.085       .  S
C857        C858   1.404       .  A
C858        C859   1.504       .  S
C859        H863   1.110       .  S
C859        H864   1.109       .  S
C859        H865   1.110       .  S
C862        H866   1.110       .  S
C862        H867   1.110       .  S
C862        H868   1.111       .  S
C869        C870   1.400       .  A
C869        C874   1.397       .  A
C869        H876   1.085       .  S
C870        C871   1.413   1_565  A
C871        C872   1.400       .  A
C871        C878   1.508       .  S
C872        C873   1.403   1_545  A
C872        H877   1.084       .  S
C873        C874   1.417       .  A
C874        C875   1.510       .  S
C875        H879   1.111       .  S
C875        H880   1.106       .  S
C875        H881   1.109       .  S
C878        H882   1.110       .  S
C878        H883   1.109       .  S
C878        H884   1.111       .  S
C885        C886   1.412       .  A
C885        C890   1.403       .  A
C885        H892   1.083       .  S
C886        C887   1.419       .  A
C887        C888   1.404       .  A
C887        C894   1.509       .  S
C888        C889   1.405       .  A
C888        H893   1.084       .  S
C889        C890   1.408       .  A
C890        C891   1.508       .  S
C891        H895   1.111       .  S
C891        H896   1.111       .  S
C891        H897   1.110       .  S
C894        H898   1.110       .  S
C894        H899   1.110       .  S
C894        H900   1.111       .  S
C901        C902   1.401       .  A
C901        C906   1.402       .  A
C901        H908   1.085       .  S
C902        C903   1.412       .  A
C903        C904   1.410       .  A
C903        C910   1.505       .  S
C904        C905   1.405       .  A
C904        H909   1.084       .  S
C905        C906   1.413       .  A
C906        C907   1.508       .  S
C907        H911   1.111       .  S
C907        H912   1.109       .  S
C907        H913   1.110       .  S
C910        H914   1.111       .  S
C910        H915   1.110       .  S
C910        H916   1.111       .  S
C917        C918   1.405       .  A
C917        C922   1.403       .  A
C917        H924   1.084       .  S
C918        C919   1.422       .  A
C919        C920   1.397       .  A
C919        C926   1.512       .  S
C920        C921   1.400       .  A
C920        H925   1.084       .  S
C921        C922   1.418       .  A
C922        C923   1.509       .  S
C923        H927   1.111       .  S
C923        H928   1.110       .  S
C923        H929   1.109       .  S
C926        H930   1.110       .  S
C926        H931   1.110       .  S
C926        H932   1.111       .  S
C933        C934   1.404       .  A
C933        C938   1.405       .  A
C933        H940   1.084       .  S
C934        C935   1.414       .  A
C935        C936   1.397       .  A
C935        C942   1.509       .  S
C936        C937   1.398       .  A
C936        H941   1.085       .  S
C937        C938   1.410       .  A
C938        C939   1.506       .  S
C939        H943   1.111       .  S
C939        H944   1.110       .  S
C939        H945   1.110       .  S
C942        H946   1.110       .  S
C942        H947   1.108       .  S
C942        H948   1.111       .  S
C949        C950   1.400       .  A
C949        C954   1.403       .  A
C949        H956   1.084       .  S
C950        C951   1.411       .  A
C951        C952   1.406       .  A
C951        C958   1.506       .  S
C952        C953   1.402       .  A
C952        H957   1.084       .  S
C953        C954   1.413       .  A
C954        C955   1.507       .  S
C955        H959   1.111       .  S
C955        H960   1.110       .  S
C955        H961   1.110       .  S
C958        H962   1.110       .  S
C958        H963   1.110       .  S
C958        H964   1.111       .  S
C965        C966   1.413       .  A
C965        C970   1.405       .  A
C965        H972   1.083       .  S
C966        C967   1.423       .  A
C967        C968   1.406       .  A
C967        C974   1.510       .  S
C968        C969   1.403       .  A
C968        H973   1.085       .  S
C969        C970   1.409       .  A
C970        C971   1.507       .  S
C971        H975   1.111       .  S
C971        H976   1.110       .  S
C971        H977   1.110       .  S
C974        H978   1.110       .  S
C974        H979   1.110       .  S
C974        H980   1.111       .  S
C981        C982   1.411       .  A
C981        C986   1.418       .  A
C981        H988   1.084       .  S
C982        C983   1.423       .  A
C983        C984   1.426       .  A
C983        C990   1.504       .  S
C984        C985   1.410       .  A
C984        H989   1.084       .  S
C985        C986   1.418       .  A
C986        C987   1.507       .  S
C987        H991   1.111       .  S
C987        H992   1.110       .  S
C987        H993   1.110       .  S
C990        H994   1.110       .  S
C990        H995   1.109       .  S
C990        H996   1.111       .  S
C997        C998   1.414       .  A
C997       C1002   1.423       .  A
C997       H1004   1.083       .  S
C998        C999   1.435       .  A
C999       C1000   1.424       .  A
C999       C1006   1.508       .  S
C1000      C1001   1.404       .  A
C1000      H1005   1.084       .  S
C1001      C1002   1.421       .  A
C1002      C1003   1.506       .  S
C1003      H1007   1.111       .  S
C1003      H1008   1.109       .  S
C1003      H1009   1.110       .  S
C1006      H1010   1.110       .  S
C1006      H1011   1.110       .  S
C1006      H1012   1.111       .  S
C1013      C1014   1.401       .  A
C1013      C1018   1.406       .  A
C1013      H1020   1.085       .  S
C1014      C1015   1.406       .  A
C1015      C1016   1.399       .  A
C1015      C1022   1.507       .  S
C1016      C1017   1.410       .  A
C1016      H1021   1.084       .  S
C1017      C1018   1.421       .  A
C1018      C1019   1.507       .  S
C1019      H1023   1.111       .  S
C1019      H1024   1.109       .  S
C1019      H1025   1.107       .  S
C1022      H1026   1.109       .  S
C1022      H1027   1.110       .  S
C1022      H1028   1.110       .  S
C1029      C1030   1.401       .  A
C1029      C1034   1.398       .  A
C1029      H1036   1.085       .  S
C1030      C1031   1.413       .  A
C1031      C1032   1.401       .  A
C1031      C1038   1.508       .  S
C1032      C1033   1.404       .  A
C1032      H1037   1.084       .  S
C1033      C1034   1.417       .  A
C1034      C1035   1.510       .  S
C1035      H1039   1.111       .  S
C1035      H1040   1.110       .  S
C1035      H1041   1.110       .  S
C1038      H1042   1.108       .  S
C1038      H1043   1.110       .  S
C1038      H1044   1.111       .  S
C1045      C1046   1.409       .  A
C1045      C1050   1.410       .  A
C1045      H1052   1.082       .  S
C1046      C1047   1.418       .  A
C1047      C1048   1.413       .  A
C1047      C1054   1.507       .  S
C1048      C1049   1.412       .  A
C1048      H1053   1.083       .  S
C1049      C1050   1.422       .  A
C1050      C1051   1.508       .  S
C1051      H1055   1.111       .  S
C1051      H1056   1.110       .  S
C1051      H1057   1.107       .  S
C1054      H1058   1.110       .  S
C1054      H1059   1.110       .  S
C1054      H1060   1.111       .  S
C1061      C1062   1.402       .  A
C1061      C1066   1.413       .  A
C1061      H1068   1.084       .  S
C1062      C1063   1.417       .  A
C1063      C1064   1.404       .  A
C1063      C1070   1.510       .  S
C1064      C1065   1.406       .  A
C1064      H1069   1.084       .  S
C1065      C1066   1.426       .  A
C1066      C1067   1.507       .  S
C1067      H1071   1.111       .  S
C1067      H1072   1.110       .  S
C1067      H1073   1.110       .  S
C1070      H1074   1.110       .  S
C1070      H1075   1.108       .  S
C1070      H1076   1.111       .  S
C1077      C1078   1.412       .  A
C1077      C1082   1.399       .  A
C1077      H1084   1.083       .  S
C1078      C1079   1.421   1_556  A
C1079      C1080   1.408       .  A
C1079      C1086   1.506       .  S
C1080      C1081   1.401   1_554  A
C1080      H1085   1.085       .  S
C1081      C1082   1.406       .  A
C1082      C1083   1.509       .  S
C1083      H1087   1.111       .  S
C1083      H1088   1.110       .  S
C1083      H1089   1.110       .  S
C1086      H1090   1.110       .  S
C1086      H1091   1.107       .  S
C1086      H1092   1.111       .  S
C1093      C1094   1.403       .  A
C1093      C1098   1.400       .  A
C1093      H1100   1.084       .  S
C1094      C1095   1.415       .  A
C1095      C1096   1.412       .  A
C1095      C1102   1.506       .  S
C1096      C1097   1.411       .  A
C1096      H1101   1.083       .  S
C1097      C1098   1.423       .  A
C1098      C1099   1.512       .  S
C1099      H1103   1.111       .  S
C1099      H1104   1.110       .  S
C1099      H1105   1.110       .  S
C1102      H1106   1.110       .  S
C1102      H1107   1.110       .  S
C1102      H1108   1.111       .  S
C1109      C1110   1.406       .  A
C1109      C1114   1.398       .  A
C1109      H1116   1.083       .  S
C1110      C1111   1.417       .  A
C1111      C1112   1.401       .  A
C1111      C1118   1.506       .  S
C1112      C1113   1.399       .  A
C1112      H1117   1.085       .  S
C1113      C1114   1.408       .  A
C1114      C1115   1.506       .  S
C1115      H1119   1.111       .  S
C1115      H1120   1.110       .  S
C1115      H1121   1.110       .  S
C1118      H1122   1.109       .  S
C1118      H1123   1.111       .  S
C1118      H1124   1.111       .  S
C1125      C1126   1.401   1_556  A
C1125      C1130   1.406       .  A
C1125      H1132   1.083       .  S
C1126      C1127   1.414       .  A
C1127      C1128   1.396       .  A
C1127      C1134   1.510       .  S
C1128      C1129   1.401       .  A
C1128      H1133   1.084       .  S
C1129      C1130   1.415   1_554  A
C1130      C1131   1.506       .  S
C1131      H1135   1.111       .  S
C1131      H1136   1.110       .  S
C1131      H1137   1.109       .  S
C1134      H1138   1.106       .  S
C1134      H1139   1.109       .  S
C1134      H1140   1.111       .  S
C1141      C1142   1.413       .  A
C1141      C1146   1.412       .  A
C1141      H1148   1.083       .  S
C1142      C1143   1.425       .  A
C1143      C1144   1.404       .  A
C1143      C1150   1.510       .  S
C1144      C1145   1.401       .  A
C1144      H1149   1.085       .  S
C1145      C1146   1.411       .  A
C1146      C1147   1.505       .  S
C1147      H1151   1.111       .  S
C1147      H1152   1.110       .  S
C1147      H1153   1.110       .  S
C1150      H1154   1.109       .  S
C1150      H1155   1.110       .  S
C1150      H1156   1.111       .  S
C1157      C1158   1.404       .  A
C1157      C1162   1.395       .  A
C1157      H1164   1.084       .  S
C1158      C1159   1.420       .  A
C1159      C1160   1.398       .  A
C1159      C1166   1.509       .  S
C1160      C1161   1.400       .  A
C1160      H1165   1.085       .  S
C1161      C1162   1.412       .  A
C1162      C1163   1.509       .  S
C1163      H1167   1.111       .  S
C1163      H1168   1.111       .  S
C1163      H1169   1.110       .  S
C1166      H1170   1.109       .  S
C1166      H1171   1.110       .  S
C1166      H1172   1.111       .  S
C1173      C1174   1.405       .  A
C1173      C1178   1.407       .  A
C1173      H1180   1.084       .  S
C1174      C1175   1.413       .  A
C1175      C1176   1.402       .  A
C1175      C1182   1.510       .  S
C1176      C1177   1.408       .  A
C1176      H1181   1.084       .  S
C1177      C1178   1.417       .  A
C1178      C1179   1.507       .  S
C1179      H1183   1.111       .  S
C1179      H1184   1.110       .  S
C1179      H1185   1.110       .  S
C1182      H1186   1.109       .  S
C1182      H1187   1.111       .  S
C1182      H1188   1.111       .  S
C1189      C1190   1.403       .  A
C1189      C1194   1.407       .  A
C1189      H1196   1.084       .  S
C1190      C1191   1.415       .  A
C1191      C1192   1.408       .  A
C1191      C1198   1.508       .  S
C1192      C1193   1.411       .  A
C1192      H1197   1.083       .  S
C1193      C1194   1.426       .  A
C1194      C1195   1.509       .  S
C1195      H1199   1.111       .  S
C1195      H1200   1.109       .  S
C1195      H1201   1.110       .  S
C1198      H1202   1.109       .  S
C1198      H1203   1.111       .  S
C1198      H1204   1.111       .  S
C1205      C1206   1.407       .  A
C1205      C1210   1.418       .  A
C1205      H1212   1.084       .  S
C1206      C1207   1.413       .  A
C1207      C1208   1.412       .  A
C1207      C1214   1.506       .  S
C1208      C1209   1.410       .  A
C1208      H1213   1.084       .  S
C1209      C1210   1.421       .  A
C1210      C1211   1.505       .  S
C1211      H1215   1.111       .  S
C1211      H1216   1.110       .  S
C1211      H1217   1.107       .  S
C1214      H1218   1.110       .  S
C1214      H1219   1.110       .  S
C1214      H1220   1.111       .  S
C1221      C1222   1.400       .  A
C1221      C1226   1.393       .  A
C1221      H1228   1.084       .  S
C1222      C1223   1.414       .  A
C1223      C1224   1.399       .  A
C1223      C1230   1.508       .  S
C1224      C1225   1.399       .  A
C1224      H1229   1.084       .  S
C1225      C1226   1.411       .  A
C1226      C1227   1.508       .  S
C1227      H1231   1.111       .  S
C1227      H1232   1.110       .  S
C1227      H1233   1.107       .  S
C1230      H1234   1.111       .  S
C1230      H1235   1.109       .  S
C1230      H1236   1.111       .  S
C1237      C1238   1.403       .  A
C1237      C1242   1.404       .  A
C1237      H1244   1.085       .  S
C1238      C1239   1.407       .  A
C1239      C1240   1.403       .  A
C1239      C1246   1.504       .  S
C1240      C1241   1.405       .  A
C1240      H1245   1.085       .  S
C1241      C1242   1.415       .  A
C1242      C1243   1.507       .  S
C1243      H1247   1.110       .  S
C1243      H1248   1.111       .  S
C1243      H1249   1.106       .  S
C1246      H1250   1.111       .  S
C1246      H1251   1.110       .  S
C1246      H1252   1.111       .  S
C1253      C1254   1.410       .  A
C1253      C1258   1.405       .  A
C1253      H1260   1.083       .  S
C1254      C1255   1.424       .  A
C1255      C1256   1.411       .  A
C1255      C1262   1.510       .  S
C1256      C1257   1.408       .  A
C1256      H1261   1.084       .  S
C1257      C1258   1.418       .  A
C1258      C1259   1.509       .  S
C1259      H1263   1.111       .  S
C1259      H1264   1.110       .  S
C1259      H1265   1.110       .  S
C1262      H1266   1.110       .  S
C1262      H1267   1.110       .  S
C1262      H1268   1.111       .  S
C1269      C1270   1.408       .  A
C1269      C1274   1.418       .  A
C1269      H1276   1.084       .  S
C1270      C1271   1.414       .  A
C1271      C1272   1.415       .  A
C1271      C1278   1.505       .  S
C1272      C1273   1.409       .  A
C1272      H1277   1.084       .  S
C1273      C1274   1.417       .  A
C1274      C1275   1.505       .  S
C1275      H1279   1.111       .  S
C1275      H1280   1.110       .  S
C1275      H1281   1.110       .  S
C1278      H1282   1.110       .  S
C1278      H1283   1.108       .  S
C1278      H1284   1.111       .  S
C1285      C1286   1.399       .  A
C1285      C1290   1.395       .  A
C1285      H1292   1.084       .  S
C1286      C1287   1.413       .  A
C1287      C1288   1.403       .  A
C1287      C1294   1.507       .  S
C1288      C1289   1.403       .  A
C1288      H1293   1.084       .  S
C1289      C1290   1.418       .  A
C1290      C1291   1.511       .  S
C1291      H1295   1.111       .  S
C1291      H1296   1.109       .  S
C1291      H1297   1.110       .  S
C1294      H1298   1.109       .  S
C1294      H1299   1.110       .  S
C1294      H1300   1.111       .  S
C1301      C1302   1.405       .  A
C1301      C1306   1.406       .  A
C1301      H1308   1.084       .  S
C1302      C1303   1.412       .  A
C1303      C1304   1.394       .  A
C1303      C1310   1.508       .  S
C1304      C1305   1.399       .  A
C1304      H1309   1.085       .  S
C1305      C1306   1.411       .  A
C1306      C1307   1.506       .  S
C1307      H1311   1.111       .  S
C1307      H1312   1.110       .  S
C1307      H1313   1.110       .  S
C1310      H1314   1.108       .  S
C1310      H1315   1.110       .  S
C1310      H1316   1.111       .  S
C1317      C1318   1.401       .  A
C1317      C1322   1.402       .  A
C1317      H1324   1.084       .  S
C1318      C1319   1.408       .  A
C1319      C1320   1.398       .  A
C1319      C1326   1.505       .  S
C1320      C1321   1.401       .  A
C1320      H1325   1.085       .  S
C1321      C1322   1.409       .  A
C1322      C1323   1.506       .  S
C1323      H1327   1.111       .  S
C1323      H1328   1.110       .  S
C1323      H1329   1.110       .  S
C1326      H1330   1.110       .  S
C1326      H1331   1.106       .  S
C1326      H1332   1.111       .  S
C1333      C1334   1.404       .  A
C1333      C1338   1.396       .  A
C1333      H1340   1.084       .  S
C1334      C1335   1.421   1_655  A
C1335      C1336   1.407       .  A
C1335      C1342   1.508       .  S
C1336      C1337   1.401   1_455  A
C1336      H1341   1.084       .  S
C1337      C1338   1.413       .  A
C1338      C1339   1.510       .  S
C1339      H1343   1.111       .  S
C1339      H1344   1.107       .  S
C1339      H1345   1.110       .  S
C1342      H1346   1.110       .  S
C1342      H1347   1.109       .  S
C1342      H1348   1.111       .  S
C1349      C1350   1.411   1_455  A
C1349      C1354   1.401       .  A
C1349      H1356   1.083       .  S
C1350      C1351   1.423       .  A
C1351      C1352   1.407       .  A
C1351      C1358   1.508       .  S
C1352      C1353   1.400       .  A
C1352      H1357   1.085       .  S
C1353      C1354   1.406   1_655  A
C1354      C1355   1.507       .  S
C1355      H1359   1.111       .  S
C1355      H1360   1.110       .  S
C1355      H1361   1.109       .  S
C1358      H1362   1.111       .  S
C1358      H1363   1.109       .  S
C1358      H1364   1.111       .  S
C1365      C1366   1.403       .  A
C1365      C1370   1.401       .  A
C1365      H1372   1.085       .  S
C1366      C1367   1.415       .  A
C1367      C1368   1.410       .  A
C1367      C1374   1.506       .  S
C1368      C1369   1.406       .  A
C1368      H1373   1.085       .  S
C1369      C1370   1.414       .  A
C1370      C1371   1.506       .  S
C1371      H1375   1.111       .  S
C1371      H1376   1.109       .  S
C1371      H1377   1.109       .  S
C1374      H1378   1.110       .  S
C1374      H1379   1.107       .  S
C1374      H1380   1.110       .  S
C1381      C1382   1.406       .  A
C1381      C1386   1.403       .  A
C1381      H1388   1.084       .  S
C1382      C1383   1.424       .  A
C1383      C1384   1.395       .  A
C1383      C1390   1.512       .  S
C1384      C1385   1.396       .  A
C1384      H1389   1.085       .  S
C1385      C1386   1.409       .  A
C1386      C1387   1.507       .  S
C1387      H1391   1.111       .  S
C1387      H1392   1.110       .  S
C1387      H1393   1.110       .  S
C1390      H1394   1.110       .  S
C1390      H1395   1.110       .  S
C1390      H1396   1.111       .  S
C1397      C1398   1.405       .  A
C1397      C1402   1.411       .  A
C1397      H1404   1.084       .  S
C1398      C1399   1.414       .  A
C1399      C1400   1.415       .  A
C1399      C1406   1.505       .  S
C1400      C1401   1.407       .  A
C1400      H1405   1.084       .  S
C1401      C1402   1.415       .  A
C1402      C1403   1.507       .  S
C1403      H1407   1.111       .  S
C1403      H1408   1.110       .  S
C1403      H1409   1.109       .  S
C1406      H1410   1.110       .  S
C1406      H1411   1.110       .  S
C1406      H1412   1.111       .  S
C1413      C1414   1.404       .  A
C1413      C1418   1.415       .  A
C1413      H1420   1.084       .  S
C1414      C1415   1.418       .  A
C1415      C1416   1.415       .  A
C1415      C1422   1.507       .  S
C1416      C1417   1.406       .  A
C1416      H1421   1.084       .  S
C1417      C1418   1.421       .  A
C1418      C1419   1.506       .  S
C1419      H1423   1.110       .  S
C1419      H1424   1.111       .  S
C1419      H1425   1.109       .  S
C1422      H1426   1.110       .  S
C1422      H1427   1.110       .  S
C1422      H1428   1.111       .  S
C1429      C1430   1.403       .  A
C1429      C1434   1.415       .  A
C1429      H1436   1.084       .  S
C1430      C1431   1.424       .  A
C1431      C1432   1.406       .  A
C1431      C1438   1.511       .  S
C1432      C1433   1.400       .  A
C1432      H1437   1.083       .  S
C1433      C1434   1.423       .  A
C1434      C1435   1.507       .  S
C1435      H1439   1.111       .  S
C1435      H1440   1.110       .  S
C1435      H1441   1.110       .  S
C1438      H1442   1.108       .  S
C1438      H1443   1.110       .  S
C1438      H1444   1.111       .  S
C1445      C1446   1.409       .  A
C1445      C1450   1.419       .  A
C1445      H1452   1.084       .  S
C1446      C1447   1.415       .  A
C1447      C1448   1.413       .  A
C1447      C1454   1.507       .  S
C1448      C1449   1.410       .  A
C1448      H1453   1.084       .  S
C1449      C1450   1.416       .  A
C1450      C1451   1.505       .  S
C1451      H1455   1.111       .  S
C1451      H1456   1.110       .  S
C1451      H1457   1.110       .  S
C1454      H1458   1.110       .  S
C1454      H1459   1.110       .  S
C1454      H1460   1.111       .  S
C1461      C1462   1.406       .  A
C1461      C1466   1.415       .  A
C1461      H1468   1.084       .  S
C1462      C1463   1.421       .  A
C1463      C1464   1.415       .  A
C1463      C1470   1.508       .  S
C1464      C1465   1.404       .  A
C1464      H1469   1.084       .  S
C1465      C1466   1.417       .  A
C1466      C1467   1.506       .  S
C1467      H1471   1.111       .  S
C1467      H1472   1.110       .  S
C1467      H1473   1.110       .  S
C1470      H1474   1.110       .  S
C1470      H1475   1.108       .  S
C1470      H1476   1.111       .  S
C1477      C1478   1.418       .  A
C1477      C1482   1.417       .  A
C1477      H1484   1.083       .  S
C1478      C1479   1.421       .  A
C1479      C1480   1.414       .  A
C1479      C1486   1.507       .  S
C1480      C1481   1.409       .  A
C1480      H1485   1.084       .  S
C1481      C1482   1.410       .  A
C1482      C1483   1.505       .  S
C1483      H1487   1.111       .  S
C1483      H1488   1.110       .  S
C1483      H1489   1.110       .  S
C1486      H1490   1.110       .  S
C1486      H1491   1.110       .  S
C1486      H1492   1.111       .  S
C1493      C1494   1.413       .  A
C1493      C1498   1.415       .  A
C1493      H1500   1.083       .  S
C1494      C1495   1.425       .  A
C1495      C1496   1.411       .  A
C1495      C1502   1.509       .  S
C1496      C1497   1.403       .  A
C1496      H1501   1.084       .  S
C1497      C1498   1.413       .  A
C1498      C1499   1.505       .  S
C1499      H1503   1.111       .  S
C1499      H1504   1.110       .  S
C1499      H1505   1.111       .  S
C1502      H1506   1.110       .  S
C1502      H1507   1.109       .  S
C1502      H1508   1.111       .  S
C1509      C1510   1.405       .  A
C1509      C1514   1.403       .  A
C1509      H1516   1.084       .  S
C1510      C1511   1.425       .  A
C1511      C1512   1.406       .  A
C1511      C1518   1.509       .  S
C1512      C1513   1.397       .  A
C1512      H1517   1.084       .  S
C1513      C1514   1.414       .  A
C1514      C1515   1.509       .  S
C1515      H1519   1.110       .  S
C1515      H1520   1.108       .  S
C1515      H1521   1.110       .  S
C1518      H1522   1.109       .  S
C1518      H1523   1.110       .  S
C1518      H1524   1.111       .  S
C1525      C1526   1.410       .  A
C1525      C1530   1.407       .  A
C1525      H1532   1.084       .  S
C1526      C1527   1.419       .  A
C1527      C1528   1.405       .  A
C1527      C1534   1.503       .  S
C1528      C1529   1.402       .  A
C1528      H1533   1.085       .  S
C1529      C1530   1.411       .  A
C1530      C1531   1.507       .  S
C1531      H1535   1.111       .  S
C1531      H1536   1.110       .  S
C1531      H1537   1.110       .  S
C1534      H1538   1.107       .  S
C1534      H1539   1.110       .  S
C1534      H1540   1.111       .  S
C1541      C1542   1.399       .  A
C1541      C1546   1.404       .  A
C1541      H1548   1.085       .  S
C1542      C1543   1.417       .  A
C1543      C1544   1.410       .  A
C1543      C1550   1.507       .  S
C1544      C1545   1.404       .  A
C1544      H1549   1.084       .  S
C1545      C1546   1.424       .  A
C1546      C1547   1.510       .  S
C1547      H1551   1.110       .  S
C1547      H1552   1.110       .  S
C1547      H1553   1.109       .  S
C1550      H1554   1.109       .  S
C1550      H1555   1.111       .  S
C1550      H1556   1.111       .  S
C1557      C1558   1.407       .  A
C1557      C1562   1.401       .  A
C1557      H1564   1.077       .  S
C1558      C1559   1.428       .  A
C1559      C1560   1.407       .  A
C1559      C1566   1.509       .  S
C1560      C1561   1.397       .  A
C1560      H1565   1.084       .  S
C1561      C1562   1.408       .  A
C1562      C1563   1.508       .  S
C1563      H1567   1.111       .  S
C1563      H1568   1.110       .  S
C1563      H1569   1.109       .  S
C1566      H1570   1.110       .  S
C1566      H1571   1.110       .  S
C1566      H1572   1.111       .  S
C1573      C1574   1.405       .  A
C1573      C1578   1.413       .  A
C1573      H1580   1.084       .  S
C1574      C1575   1.419       .  A
C1575      C1576   1.413       .  A
C1575      C1582   1.507       .  S
C1576      C1577   1.404       .  A
C1576      H1581   1.084       .  S
C1577      C1578   1.417       .  A
C1578      C1579   1.506       .  S
C1579      H1583   1.111       .  S
C1579      H1584   1.110       .  S
C1579      H1585   1.110       .  S
C1582      H1586   1.109       .  S
C1582      H1587   1.111       .  S
C1582      H1588   1.111       .  S
