geometry optimzed in LAMMPS
_audit_creation_date              2020-11-30 
_audit_creation_method            'lammps2cif' 
_symmetry_space_group_name_H-M    'P1' 
_symmetry_Int_Tables_number       1 
_symmetry_cell_setting            triclinic 
loop_ 
_symmetry_equiv_pos_as_xyz 
  x,y,z 
_cell_length_a                    32.87514583 
_cell_length_b                    33.01121539044279 
_cell_length_c                    62.687600285503336 
_cell_angle_alpha                 89.90219771705601 
_cell_angle_beta                  89.91315183259186 
_cell_angle_gamma                 119.75873717037445 
loop_ 
_atom_site_label 
_atom_site_type_symbol 
_atom_site_fract_x 
_atom_site_fract_y 
_atom_site_fract_z 
_atom_site_charge 
O1          O  0.08555284  0.29912976  0.32714642    -0.88200
C2          C  0.19494527  0.35892619  0.28491424     0.87800
Mg3        Mg  0.08188598  0.33365052  0.35567703     1.58100
O4          O  0.18940923  0.26946599  0.31738354    -0.87900
O5          O  0.08053447  0.23366720  0.31680955    -0.75300
C6          C  0.28863122  0.40974281  0.40226706     0.92900
O7          O  0.14878630  0.40792212  0.31617321    -0.75100
O8          O  0.25767821  0.42226368  0.40115690    -0.82600
Mg9        Mg  0.10150958  0.33949354  0.29812051     1.58000
C10         C  0.31808291  0.30122796  0.34604130     0.92800
O11         O  0.05444100  0.27799791  0.27681718    -0.80900
H12         H  0.15750611  0.20308775  0.32727668    -0.06200
C13         C  0.27624860  0.40235101  0.33912792     0.87700
O14         O  0.10698295  0.29299931  0.37640953    -0.75400
O15         O  0.15848955  0.32667953  0.29248646    -0.88100
O16         O  0.29310126  0.28749380  0.32927352    -0.80900
C17         C  0.23437402  0.26724878  0.26587198     0.92900
C18         C  0.05315578  0.24602207  0.26509409     0.92800
Mg19       Mg  0.23996201  0.31883829  0.36844558     1.58000
O20         O  0.28681212  0.37858041  0.38995181    -0.80900
O21         O  0.19293433  0.25045590  0.35048575    -0.75100
O22         O  0.19316996  0.26169958  0.26612609    -0.80900
O23         O  0.03868335  0.34950189  0.30360694    -0.82700
O24         O  0.14887497  0.39667834  0.40057804    -0.81000
C25         C  0.17929674  0.23949638  0.33134941     0.87200
O26         O  0.18320367  0.33155503  0.37417178    -0.88100
O27         O  0.25580462  0.35930867  0.33950506    -0.88200
O28         O  0.26171475  0.42497626  0.35005337    -0.75300
Mg29       Mg  0.13960396  0.25347913  0.29225244     1.58000
O30         O  0.26221950  0.28671531  0.28142048    -0.82700
H31         H  0.03517927  0.23716336  0.33773223    -0.06400
O32         O  0.15220727  0.38947144  0.34944372    -0.87900
H33         H  0.18417582  0.45567597  0.33926939    -0.06200
H34         H  0.14907473  0.27526002  0.39280707    -0.06400
C35         C  0.16234115  0.41917440  0.33532268     0.87200
C36         C  0.06553492  0.25609922  0.32758205     0.87800
C37         C  0.14688178  0.29936341  0.38179542     0.87800
H38         H  0.30655665  0.42110578  0.32893807    -0.06400
O39         O  0.23487776  0.36520914  0.29027372    -0.75400
Mg40       Mg  0.20266150  0.40494268  0.37465893     1.58000
H41         H  0.19284075  0.38311911  0.27393057    -0.06400
C42         C  0.02415124  0.36119667  0.32000408     0.92800
O43         O  0.07916546  0.37065675  0.38569569    -0.82600
C44         C  0.10737485  0.39035690  0.40113257     0.92900
O45         O  0.08502819  0.23488650  0.26610992    -0.82600
Mg46       Mg  0.25952501  0.32424523  0.31111085     1.58200
O47         O  0.04505985  0.36774942  0.33781956    -0.80900
O48         O  0.30383101  0.31225700  0.36262989    -0.82600
C49         C  0.29344078  0.09659603  0.20512094    -0.10700
C50         C  0.28227952  0.12702241  0.21589268    -0.04600
C51         C  0.29597990  0.17173683  0.20808396    -0.10700
C52         C  0.32127986  0.18672116  0.18875391     0.10200
C53         C  0.33591742  0.15784340  0.17844766    -0.02500
C54         C  0.32232203  0.11273443  0.18666621     0.10000
C55         C  0.33773723  0.08512388  0.17610293    -0.12500
C56         C  0.36743553  0.10217588  0.15840168    -0.12500
C57         C  0.38086575  0.14650636  0.14996903     0.10000
C58         C  0.36396563  0.17408847  0.15976688    -0.02500
C59         C  0.33248288  0.22992312  0.17954199    -0.12600
C60         C  0.35852526  0.24506367  0.16078523    -0.12600
C61         C  0.37454954  0.21768963  0.15070126     0.10200
C62         C  0.40052699  0.23236755  0.13158077    -0.10700
C63         C  0.41864574  0.20609145  0.12275101    -0.04600
C64         C  0.41018753  0.16409627  0.13177672    -0.10700
H65         H  0.32743068  0.05021747  0.18153281     0.07500
H66         H  0.37932793  0.08010371  0.15117785     0.07500
H67         H  0.32115261  0.25241854  0.18679578     0.07700
H68         H  0.36626095  0.27854767  0.15426730     0.07700
H69         H  0.26285356  0.11586109  0.23076247     0.04100
H70         H  0.43848728  0.21787284  0.10796615     0.04100
C71         C  0.90515355  0.16009130  0.20263745    -0.10700
C72         C  0.87191785  0.11662489  0.21053035    -0.04600
C73         C  0.82768812  0.09121138  0.20145590    -0.10700
C74         C  0.81700104  0.10764257  0.18263607     0.10200
C75         C  0.85045349  0.15181010  0.17417484    -0.02500
C76         C  0.89440428  0.17866674  0.18449450     0.10000
C77         C  0.92578297  0.22338278  0.17664239    -0.12500
C78         C  0.91465130  0.24123268  0.15876863    -0.12500
C79         C  0.87195321  0.21479188  0.14789599     0.10000
C80         C  0.83946420  0.16958041  0.15569870    -0.02500
C81         C  0.77398233  0.08139837  0.17217349    -0.12600
C82         C  0.76391383  0.09800778  0.15358426    -0.12600
C83         C  0.79607370  0.14196520  0.14507212     0.10200
C84         C  0.78623130  0.15878285  0.12606968    -0.10700
C85         C  0.81833188  0.20392523  0.11883670    -0.04600
C86         C  0.86062925  0.23248608  0.12956876    -0.10700
H87         H  0.95920906  0.24493201  0.18432483     0.07500
H88         H  0.93998554  0.27607023  0.15353341     0.07500
H89         H  0.74798669  0.04752862  0.17821421     0.07700
H90         H  0.73045409  0.07618817  0.14599082     0.07700
H91         H  0.87965940  0.10353624  0.22498246     0.04100
H92         H  0.81078583  0.21661378  0.10424820     0.04100
O93         O  0.25548011  0.88316894  0.33640728    -0.88200
C94         C  0.15530479  0.85395092  0.38170450     0.87800
Mg95       Mg  0.25651323  0.91306891  0.30576008     1.58100
O96         O  0.15115163  0.75921384  0.35396888    -0.87900
O97         O  0.26083227  0.82596266  0.35086784    -0.75300
C98         C  0.04215125  0.78476875  0.26676971     0.92900
O99         O  0.19868381  0.93649927  0.34430869    -0.75100
O100        O  0.07657405  0.82630611  0.26525648    -0.82600
Mg101      Mg  0.24750725  0.91824574  0.36342352     1.58000
C102        C  0.01841277  0.66005833  0.33317321     0.92800
O103        O  0.29741847  0.90695842  0.38517976    -0.80900
H104        H  0.17869471  0.71956526  0.34535207    -0.06200
C105        C  0.06571599  0.80642828  0.32939184     0.87700
O106        O  0.22530337  0.84137790  0.28974044    -0.75400
O107        O  0.18956184  0.85309411  0.37412077    -0.88100
O108        O  0.04751194  0.67726528  0.34828604    -0.80900
C109        C  0.11117166  0.72436432  0.40752562     0.92900
C110        C  0.29682195  0.87906005  0.39949833     0.92800
Mg111      Mg  0.09061133  0.74599526  0.30345843     1.58000
O112        O  0.04137235  0.75728964  0.28124436    -0.80900
O113        O  0.13921294  0.72686339  0.32238274    -0.75100
O114        O  0.15376022  0.75714359  0.40582390    -0.80900
O115        O  0.31058407  0.98649260  0.35233102    -0.82700
O116        O  0.18662549  0.90458668  0.26053836    -0.81000
C117        C  0.15713351  0.73453698  0.34094434     0.87200
O118        O  0.14932620  0.81027608  0.29257356    -0.88100
O119        O  0.08457501  0.78222308  0.33063945    -0.88200
O120        O  0.07937394  0.83926472  0.31583988    -0.75300
Mg121      Mg  0.20465600  0.79624318  0.37725537     1.58000
O122        O  0.08204370  0.71663172  0.39268392    -0.82700
H123        H  0.30356949  0.86665100  0.32703720    -0.06400
O124        O  0.18902274  0.90557069  0.31245336    -0.87900
H125        H  0.16045614  0.94437587  0.32091796    -0.06200
H126        H  0.17897002  0.77889698  0.27685450    -0.06400
C127        C  0.18209642  0.92961376  0.32549479     0.87200
C128        C  0.27477749  0.85938444  0.33765245     0.87800
C129        C  0.18396638  0.80901974  0.28577659     0.87800
H130        H  0.03740576  0.79988032  0.34019140    -0.06400
O131        O  0.11381897  0.82155131  0.37807036    -0.75400
Mg132      Mg  0.13520420  0.86774730  0.28914598     1.58000
H133        H  0.16073456  0.88371550  0.39106008    -0.06400
C134        C  0.32048242  0.00734890  0.33436215     0.92800
O135        O  0.25810699  0.94474541  0.27408878    -0.82600
C136        C  0.22963992  0.93634825  0.25891350     0.92900
O137        O  0.26254954  0.83765718  0.40103833    -0.82600
Mg138      Mg  0.08367294  0.75085538  0.36124654     1.58200
O139        O  0.29605734  0.98824494  0.31790141    -0.80900
O140        O  0.02585750  0.67993044  0.31508585    -0.82600
O141        O  0.63855828  0.75227648  0.34354685    -0.88200
C142        C  0.72000563  0.86024115  0.38351623     0.87800
Mg143      Mg  0.66198073  0.74359752  0.31268812     1.58100
O144        O  0.62640856  0.86407927  0.35826215    -0.87900
O145        O  0.58027974  0.75440527  0.35912972    -0.75300
C146        C  0.73884399  0.94447883  0.26351466     0.92900
O147        O  0.75048206  0.80699303  0.34719522    -0.75100
O148        O  0.74521811  0.90962701  0.26399168    -0.82600
Mg149      Mg  0.68681717  0.76476843  0.36922732     1.58000
C150        C  0.65482785  0.98921669  0.33023200     0.92800
O151        O  0.63074936  0.72241131  0.39360623    -0.80900
H152        H  0.55793547  0.83824845  0.35310377    -0.06200
C153        C  0.75347668  0.93880293  0.32714124     0.87700
O154        O  0.61905860  0.77203582  0.29603850    -0.75400
O155        O  0.68324873  0.82578771  0.37775174    -0.88100
O156        O  0.65347338  0.96948085  0.34781565    -0.80900
C157        C  0.64299447  0.91413328  0.40977763     0.92900
C158        C  0.60500565  0.72497928  0.40810441     0.92800
Mg159      Mg  0.66189606  0.90911102  0.30457600     1.58000
O160        O  0.71680879  0.95135160  0.27858582    -0.80900
O161        O  0.59890952  0.86846499  0.32709421    -0.75100
O162        O  0.63341059  0.87158009  0.40971433    -0.80900
O163        O  0.68708635  0.69782521  0.36093798    -0.82700
O164        O  0.70805611  0.80180770  0.26483911    -0.81000
C165        C  0.59307828  0.85650588  0.34662478     0.87200
O166        O  0.66435072  0.84763924  0.29693732    -0.88100
O167        O  0.71104768  0.92214894  0.33022324    -0.88200
O168        O  0.76885898  0.92051804  0.31392092    -0.75300
Mg169      Mg  0.61309099  0.81463183  0.38326904     1.58000
O170        O  0.66222224  0.94017102  0.39361816    -0.82700
H171        H  0.57177997  0.70627142  0.33684098    -0.06400
O172        O  0.72247019  0.81112442  0.31610613    -0.87900
H173        H  0.79121291  0.83873073  0.32127122    -0.06200
H174        H  0.60179910  0.81750761  0.28262170    -0.06400
C175        C  0.75608735  0.81949288  0.32772475     0.87200
C176        C  0.59606584  0.73609825  0.34614507     0.87800
C177        C  0.62764233  0.81292445  0.29130933     0.87800
H178        H  0.77800504  0.96908659  0.33611530    -0.06400
O179        O  0.72961273  0.90121473  0.37837178    -0.75400
Mg180      Mg  0.73354402  0.85873920  0.29063406     1.58000
H181        H  0.74522293  0.85528594  0.39253626    -0.06400
C182        C  0.69443209  0.68458010  0.34305625     0.92800
O183        O  0.68898528  0.73508901  0.28093115    -0.82600
C184        C  0.70370361  0.76125843  0.26462724     0.92900
O185        O  0.59796235  0.75956809  0.40898973    -0.82600
Mg186      Mg  0.68830021  0.93096786  0.36149215     1.58200
O187        O  0.69955457  0.70756625  0.32607982    -0.80900
O188        O  0.66111297  0.97480870  0.31248148    -0.82600
C189        C  0.81387023  0.72381860  0.20540591    -0.10700
C190        C  0.85628141  0.73606030  0.21543886    -0.04600
C191        C  0.88998436  0.72767238  0.20596702    -0.10700
C192        C  0.88027759  0.70454834  0.18596942     0.10200
C193        C  0.83777397  0.69308417  0.17533315    -0.02500
C194        C  0.80466106  0.70305968  0.18506207     0.10000
C195        C  0.76304493  0.69194877  0.17427888    -0.12500
C196        C  0.75396237  0.67151191  0.15424962    -0.12500
C197        C  0.78571265  0.66052590  0.14444228     0.10000
C198        C  0.82779210  0.67078941  0.15510932    -0.02500
C199        C  0.91093808  0.69146444  0.17657228    -0.12600
C200        C  0.90017861  0.66778808  0.15704213    -0.12600
C201        C  0.85923624  0.65789433  0.14581145     0.10200
C202        C  0.84807848  0.63482619  0.12571973    -0.10700
C203        C  0.80692575  0.62627743  0.11531783    -0.04600
C204        C  0.77607802  0.63907423  0.12426654    -0.10700
H205        H  0.73725526  0.69940432  0.18116577     0.07500
H206        H  0.72153632  0.66410781  0.14656014     0.07500
H207        H  0.94323352  0.69895181  0.18443206     0.07700
H208        H  0.92448065  0.65773974  0.15064257     0.07700
H209        H  0.86295472  0.75193096  0.23112579     0.04100
H210        H  0.79825375  0.60847109  0.10005906     0.04100
O211        O  0.45341198  0.04143706  0.00151229    -0.88200
C212        C  0.49738862  0.98017278  0.04701779     0.87800
Mg213      Mg  0.41095943  0.00646116  0.97379279     1.58100
O214        O  0.58702269  0.06417481  0.01372468    -0.87900
O215        O  0.51646692  0.10406994  0.01255822    -0.75300
C216        C  0.52913582  0.91475283  0.93235500     0.92900
O217        O  0.40052675  0.93338551  0.01613448    -0.75100
O218        O  0.48850822  0.91023256  0.93192369    -0.82600
Mg219      Mg  0.42836722  0.00554450  0.03148147     1.58000
C220        C  0.67352484  0.01779901  0.98560813     0.92800
O221        O  0.44833113  0.07365531  0.04867902    -0.80900
H222        H  0.62331367  0.12835059  0.00127103    -0.06200
C223        C  0.52445055  0.92647036  0.99550097     0.87700
O224        O  0.47608911  0.03919610  0.95216628    -0.75400
O225        O  0.49620125  0.01198656  0.03727180    -0.88100
O226        O  0.66372422  0.03115672  0.00294159    -0.80900
C227        C  0.63217704  0.06428784  0.06577251     0.92900
C228        C  0.47414323  0.09116517  0.06489448     0.92800
Mg229      Mg  0.57688194  0.00362402  0.96441155     1.58000
O230        O  0.55672152  0.93549328  0.94773647    -0.80900
O231        O  0.60489663  0.07626040  0.97969814    -0.75100
O232        O  0.59901259  0.07388666  0.06479157    -0.80900
O233        O  0.35804406  0.00035927  0.02629410    -0.82700
O234        O  0.40651041  0.93512025  0.93109844    -0.81000
C235        C  0.60609148  0.09112619  0.99854061     0.87200
O236        O  0.50933007  0.99774111  0.95849333    -0.88100
O237        O  0.55147302  0.96902038  0.99434771    -0.88200
O238        O  0.48767048  0.90622506  0.98410784    -0.75300
Mg239      Mg  0.55339327  0.08261667  0.03825118     1.58000
O240        O  0.63816681  0.04168736  0.05078349    -0.82700
H241        H  0.47224592  0.10504000  0.99015452    -0.06400
O242        O  0.41779224  0.94641784  0.98213275    -0.87900
H243        H  0.38101888  0.88194365  0.99416499    -0.06200
H244        H  0.53550506  0.04988959  0.93723281    -0.06400
C245        C  0.39857296  0.91907404  0.99715183     0.87200
C246        C  0.48003419  0.08413218  0.00089214     0.87800
C247        C  0.50828384  0.02955962  0.94869845     0.87800
H248        H  0.53209634  0.90598144  0.00656937    -0.06400
O249        O  0.52956990  0.97055144  0.04344544    -0.75400
Mg250      Mg  0.45148107  0.92722560  0.95805115     1.58000
H251        H  0.47025845  0.95979885  0.05852141    -0.06400
C252        C  0.33108460  0.99115638  0.01041747     0.92800
O253        O  0.36677944  0.96682500  0.94495158    -0.82600
C254        C  0.37229002  0.94325487  0.93032701     0.92900
O255        O  0.51551838  0.09725420  0.06510511    -0.82600
Mg256      Mg  0.59442032  0.00421315  0.02166510     1.58200
O257        O  0.34179040  0.98322988  0.99197196    -0.80900
O258        O  0.64620454  0.00609284  0.96971236    -0.82600
O259        O  0.55225807  0.58047704  0.99199471    -0.88200
C260        C  0.51489650  0.47006735  0.95272310     0.87800
Mg261      Mg  0.58593911  0.58787219  0.02214744     1.58100
O262        O  0.42615752  0.47677817  0.98125483    -0.87900
O263        O  0.49495852  0.58600213  0.97781839    -0.75300
C264        C  0.45883783  0.38613089  0.07280522     0.92900
O265        O  0.60212259  0.51980110  0.98692566    -0.75100
O266        O  0.50041418  0.42065295  0.07236891    -0.82600
Mg267      Mg  0.58325627  0.56502218  0.96538704     1.58000
C268        C  0.32664003  0.35089840  0.00902538     0.92800
O269        O  0.57142288  0.61048114  0.94113809    -0.80900
H270        H  0.38865601  0.50760104  0.98841305    -0.06200
C271        C  0.47193140  0.39392015  0.00982802     0.87700
O272        O  0.51654526  0.56317605  0.04011241    -0.75400
O273        O  0.51617177  0.50670667  0.95807278    -0.88100
O274        O  0.34208972  0.37715883  0.99278295    -0.80900
C275        C  0.38304448  0.42431213  0.93070485     0.92900
C276        C  0.54205641  0.60887861  0.92739717     0.92800
Mg277      Mg  0.41674463  0.42750468  0.03443923     1.58000
O278        O  0.42920856  0.38179645  0.05857177    -0.80900
O279        O  0.39697285  0.47262892  0.01320524    -0.75100
O280        O  0.41649360  0.46646398  0.93021267    -0.80900
O281        O  0.65269309  0.62903102  0.97284054    -0.82700
O282        O  0.58055287  0.53015693  0.07057237    -0.81000
C283        C  0.40329153  0.48644687  0.99388205     0.87200
O284        O  0.48305559  0.48708505  0.04173642    -0.88100
O285        O  0.44897145  0.41394159  0.00773616    -0.88200
O286        O  0.50675111  0.40968673  0.02231541    -0.75300
Mg287      Mg  0.46044306  0.52378682  0.95498270     1.58000
O288        O  0.37687834  0.39852823  0.94680078    -0.82700
H289        H  0.54067984  0.63298022  0.99896797    -0.06400
O290        O  0.57493951  0.51848903  0.01907805    -0.87900
H291        H  0.61114287  0.48622937  0.01209429    -0.06200
H292        H  0.45538157  0.52226038  0.05573875    -0.06400
C293        C  0.59682956  0.50754526  0.00645710     0.87200
C294        C  0.53024480  0.60143252  0.98995127     0.87800
C295        C  0.48391698  0.52380807  0.04649717     0.87800
H296        H  0.46258383  0.36276540  0.00066677    -0.06400
O297        O  0.48258900  0.43056432  0.95912956    -0.75400
Mg298      Mg  0.53968179  0.47202344  0.04538783     1.58000
H299        H  0.54294244  0.47182430  0.94302931    -0.06400
C300        C  0.67563711  0.64215633  0.99014899     0.92800
O301        O  0.62225925  0.59663875  0.05319051    -0.82600
C302        C  0.61481806  0.57187859  0.06977718     0.92900
O303        O  0.49950963  0.57600025  0.92786029    -0.82600
Mg304      Mg  0.41426625  0.40698757  0.97766473     1.58200
O305        O  0.65904603  0.62030680  0.00750592    -0.80900
O306        O  0.34878173  0.36223186  0.02652808    -0.82600
O307        O  0.03815523  0.45133514  0.99885169    -0.88200
C308        C  0.96060150  0.47773875  0.95626284     0.87800
Mg309      Mg  0.01241907  0.42083412  0.03001737     1.58100
O310        O  0.05512625  0.57445649  0.98104535    -0.87900
O311        O  0.09799942  0.50726072  0.98216478    -0.75300
C312        C  0.93256758  0.55219152  0.07248017     0.92900
O313        O  0.92744183  0.39677020  0.99361822    -0.75100
O314        O  0.92564798  0.51070613  0.07429299    -0.82600
Mg315      Mg  0.99248123  0.41506917  0.97273906     1.58000
C316        C  0.02643680  0.67523431  0.00532223     0.92800
O317        O  0.05165118  0.42571949  0.94967945    -0.80900
H318        H  0.12321768  0.61244166  0.98808328    -0.06200
C319        C  0.92621931  0.52805152  0.01025395     0.87700
O320        O  0.05446104  0.49194932  0.04622223    -0.75400
O321        O  0.99694758  0.47923613  0.96244735    -0.88100
O322        O  0.03096906  0.65652141  0.98850378    -0.80900
C323        C  0.04099829  0.60636385  0.92837591     0.92900
C324        C  0.07260145  0.45095628  0.93350427     0.92800
Mg325      Mg  0.01547915  0.58789157  0.03375708     1.58000
O326        O  0.95778955  0.57886822  0.05737302    -0.80900
O327        O  0.07984607  0.60504745  0.01271689    -0.75100
O328        O  0.05055712  0.57322854  0.92924486    -0.80900
O329        O  0.98997731  0.34788225  0.98297406    -0.82700
O330        O  0.95530909  0.42864578  0.07712467    -0.81000
C331        C  0.08744383  0.59811391  0.99351831     0.87200
O332        O  0.00967878  0.52321223  0.04412991    -0.88100
O333        O  0.96897193  0.55196380  0.00768717    -0.88200
O334        O  0.90886179  0.49558757  0.02405761    -0.75300
Mg335      Mg  0.06751448  0.53568505  0.95680585     1.58000
O336        O  0.02189358  0.61465216  0.94408062    -0.82700
H337        H  0.10413675  0.46898265  0.00607910    -0.06400
O338        O  0.95159099  0.42814835  0.02523128    -0.87900
H339        H  0.88361613  0.38915499  0.01810041    -0.06200
H340        H  0.07107457  0.55437646  0.05939823    -0.06400
C341        C  0.91948562  0.40393947  0.01274001     0.87200
C342        C  0.08087288  0.47522819  0.99619250     0.87800
C343        C  0.04571770  0.52436929  0.05053878     0.87800
H344        H  0.90308156  0.53449588  0.00037123    -0.06400
O345        O  0.95191985  0.51024820  0.96049221    -0.75400
Mg346      Mg  0.93869639  0.46689463  0.04947722     1.58000
H347        H  0.93498460  0.44741637  0.94765837    -0.06400
C348        C  0.98112736  0.32787326  0.00104437     0.92800
O349        O  0.98442274  0.38773330  0.06197501    -0.82600
C350        C  0.96541597  0.39580713  0.07779188     0.92900
O351        O  0.07882875  0.49214525  0.93163725    -0.82600
Mg352      Mg  0.99429887  0.58190326  0.97633809     1.58200
O353        O  0.97582296  0.34648275  0.01768791    -0.80900
O354        O  0.01893140  0.65523156  0.02336348    -0.82600
O355        O  0.28456612  0.07721161  0.66881818    -0.88200
C356        C  0.36255471  0.18193034  0.71122288     0.87800
Mg357      Mg  0.30946768  0.07104194  0.63762885     1.58100
O358        O  0.26947644  0.18556195  0.68535888    -0.87900
O359        O  0.22508557  0.07576758  0.68500151    -0.75300
C360        C  0.39341942  0.27915302  0.59499617     0.92900
O361        O  0.39616274  0.13291412  0.67445516    -0.75100
O362        O  0.39808371  0.24320895  0.59380948    -0.82600
Mg363      Mg  0.33123453  0.08823837  0.69520920     1.58000
C364        C  0.30136508  0.31479708  0.66042577     0.92800
O365        O  0.27311978  0.04107928  0.71879919    -0.80900
H366        H  0.20150860  0.15849277  0.67843912    -0.06200
C367        C  0.39905481  0.26356846  0.65725750     0.87700
O368        O  0.26880545  0.10200265  0.62116918    -0.75400
O369        O  0.32647222  0.14789845  0.70457332    -0.88100
O370        O  0.29349194  0.28993169  0.67695816    -0.80900
C371        C  0.28407734  0.23274654  0.73725843     0.92900
C372        C  0.24955467  0.04462270  0.73414753     0.92800
Mg373      Mg  0.31125266  0.23766768  0.63311829     1.58000
O374        O  0.37100097  0.28432382  0.61029444    -0.80900
O375        O  0.24538032  0.19308839  0.65376504    -0.75100
O376        O  0.27490494  0.19036426  0.73670596    -0.80900
O377        O  0.33531401  0.02481872  0.68595741    -0.82700
O378        O  0.36618291  0.13536831  0.59133235    -0.81000
C379        C  0.23736989  0.17842015  0.67294859     0.87200
O380        O  0.31458808  0.17716948  0.62373426    -0.88100
O381        O  0.35633337  0.24638550  0.65939064    -0.88200
O382        O  0.41610254  0.24722574  0.64387884    -0.75300
Mg383      Mg  0.25618800  0.13487026  0.70988246     1.58000
O384        O  0.30320092  0.25972467  0.72146986    -0.82700
H385        H  0.21834873  0.03016917  0.66168716    -0.06400
O386        O  0.37101825  0.13771330  0.64272034    -0.87900
H387        H  0.43918401  0.16573360  0.64934464    -0.06200
H388        H  0.25356751  0.14926085  0.60818122    -0.06400
C389        C  0.40347952  0.14580780  0.65505533     0.87200
C390        C  0.24189334  0.05960463  0.67139040     0.87800
C391        C  0.27832729  0.14340759  0.61709787     0.87800
H392        H  0.42237315  0.29263803  0.66718712    -0.06400
O393        O  0.37207104  0.22323260  0.70684953    -0.75400
Mg394      Mg  0.38460475  0.18880529  0.61874204     1.58000
H395        H  0.38723544  0.17638687  0.72035705    -0.06400
C396        C  0.34226938  0.01117923  0.66813717     0.92800
O397        O  0.33797133  0.06502885  0.60543127    -0.82600
C398        C  0.35767798  0.09337005  0.59002646     0.92900
O399        O  0.24345447  0.07978322  0.73542227    -0.82600
Mg400      Mg  0.33060132  0.25278057  0.69000693     1.58200
O401        O  0.34281310  0.03078751  0.65065222    -0.80900
O402        O  0.31095165  0.30312897  0.64266369    -0.82600
C403        C  0.22396256  0.36897997  0.87569873    -0.10700
C404        C  0.19508849  0.38417727  0.88472458    -0.04600
C405        C  0.15634006  0.38066174  0.87382957    -0.10700
C406        C  0.14464167  0.35931726  0.85342948     0.10200
C407        C  0.17461870  0.34507233  0.84380191    -0.02500
C408        C  0.21468448  0.35047362  0.85489059     0.10000
C409        C  0.24457791  0.33727805  0.84493049    -0.12500
C410        C  0.23612435  0.32021227  0.82425792    -0.12500
C411        C  0.19663238  0.31429093  0.81301143     0.10000
C412        C  0.16487712  0.32570220  0.82297429    -0.02500
C413        C  0.10434951  0.35204724  0.84233759    -0.12600
C414        C  0.09352492  0.33078095  0.82221449    -0.12600
C415        C  0.12347257  0.31756333  0.81219192     0.10200
C416        C  0.11388003  0.29697625  0.79157568    -0.10700
C417        C  0.14682979  0.28798780  0.78174321    -0.04600
C418        C  0.18809585  0.29700371  0.79202204    -0.10700
H419        H  0.27514305  0.34044329  0.85296011     0.07500
H420        H  0.26079581  0.31139399  0.81720674     0.07500
H421        H  0.08073069  0.36243498  0.84924681     0.07700
H422        H  0.06198857  0.32557002  0.81434584     0.07700
H423        H  0.20345510  0.39989998  0.90045558     0.04100
H424        H  0.13971290  0.27260941  0.76594503     0.04100
C425        C  0.14392954  0.76171371  0.87079038    -0.10700
C426        C  0.18723860  0.79218471  0.88028513    -0.04600
C427        C  0.21889478  0.83551886  0.87111345    -0.10700
C428        C  0.20686714  0.84901633  0.85163268     0.10200
C429        C  0.16298014  0.81891617  0.84188876    -0.02500
C430        C  0.13122862  0.77547046  0.85159764     0.10000
C431        C  0.08759963  0.74691479  0.84184389    -0.12500
C432        C  0.07508045  0.76068993  0.82306556    -0.12500
C433        C  0.10619162  0.80291702  0.81297402     0.10000
C434        C  0.15065595  0.83240267  0.82240168    -0.02500
C435        C  0.23754938  0.89176014  0.84160979    -0.12600
C436        C  0.22557954  0.90480134  0.82241938    -0.12600
C437        C  0.18258685  0.87552713  0.81245193     0.10200
C438        C  0.17010302  0.88802100  0.79286479    -0.10700
C439        C  0.12633847  0.85854555  0.78399650    -0.04600
C440        C  0.09425299  0.81671442  0.79365922    -0.10700
H441        H  0.06258546  0.71357047  0.84869022     0.07500
H442        H  0.04091450  0.73768126  0.81632922     0.07500
H443        H  0.27134990  0.91543484  0.84847661     0.07700
H444        H  0.25037111  0.93802104  0.81536040     0.07700
H445        H  0.19616246  0.78234177  0.89533643     0.04100
H446        H  0.11681488  0.86863566  0.76913091     0.04100
O447        O  0.90915714  0.21945579  0.67329365    -0.88200
C448        C  0.80904785  0.19412823  0.71767302     0.87800
Mg449      Mg  0.91273651  0.25020956  0.64254229     1.58100
O450        O  0.80114598  0.09728643  0.69024500    -0.87900
O451        O  0.91174343  0.16085909  0.68791750    -0.75300
C452        C  0.70028848  0.12991070  0.60182392     0.92900
O453        O  0.85581101  0.27659006  0.68062627    -0.75100
O454        O  0.73590286  0.17059618  0.60062505    -0.82600
Mg455      Mg  0.90227918  0.25599951  0.70017528     1.58000
C456        C  0.66897024  0.99979851  0.66657376     0.92800
O457        O  0.94976497  0.24319662  0.72256016    -0.80900
H458        H  0.82771579  0.05675214  0.68177210    -0.06200
C459        C  0.72025901  0.14960367  0.66430257     0.87700
O460        O  0.88009439  0.17919990  0.62608220    -0.75400
O461        O  0.84293426  0.19184843  0.71063287    -0.88100
O462        O  0.69122934  0.01840657  0.68361244    -0.80900
C463        C  0.75889344  0.06227732  0.74252975     0.92900
C464        C  0.94953921  0.21544543  0.73681751     0.92800
Mg465      Mg  0.74524456  0.08812685  0.63872901     1.58000
O466        O  0.69709295  0.10126505  0.61636203    -0.80900
O467        O  0.79155506  0.06722100  0.65821710    -0.75100
O468        O  0.80175595  0.09479046  0.74200070    -0.80900
O469        O  0.96725177  0.32326328  0.68955559    -0.82700
O470        O  0.84628221  0.24616238  0.59677133    -0.81000
C471        C  0.80734656  0.07288606  0.67714445     0.87200
O472        O  0.80476229  0.15182114  0.62876989    -0.88100
O473        O  0.73746996  0.12393949  0.66580907    -0.88200
O474        O  0.73608694  0.18308983  0.65101153    -0.75300
Mg475      Mg  0.85515791  0.13307631  0.71404296     1.58000
O476        O  0.73106915  0.05760687  0.72749360    -0.82700
H477        H  0.95558075  0.20049056  0.66416724    -0.06400
O478        O  0.84643244  0.24624737  0.64865584    -0.87900
H479        H  0.81963991  0.28670088  0.65696398    -0.06200
H480        H  0.83165578  0.11847901  0.61255283    -0.06400
C481        C  0.84008942  0.27071416  0.66167745     0.87200
C482        C  0.92698263  0.19434959  0.67468919     0.87800
C483        C  0.83823792  0.14875133  0.62179329     0.87800
H484        H  0.69164033  0.14388854  0.67471075    -0.06400
O485        O  0.76733805  0.16315993  0.71339856    -0.75400
Mg486      Mg  0.79329765  0.21046281  0.62494833     1.58000
H487        H  0.81509464  0.22407187  0.72705641    -0.06400
C488        C  0.97789499  0.34336997  0.67142739     0.92800
O489        O  0.91739421  0.28324662  0.61074796    -0.82600
C490        C  0.88984671  0.27640713  0.59534683     0.92900
O491        O  0.91521170  0.17372339  0.73832083    -0.82600
Mg492      Mg  0.73429927  0.09243481  0.69646911     1.58200
O493        O  0.95387379  0.32401831  0.65496304    -0.80900
O494        O  0.68155063  0.02068520  0.64873147    -0.82600
O495        O  0.74376599  0.63217551  0.65663021    -0.88200
C496        C  0.85693928  0.69879019  0.61620262     0.87800
Mg497      Mg  0.73363801  0.66425162  0.68482169     1.58100
O498        O  0.85522482  0.61002050  0.64822195    -0.87900
O499        O  0.74510582  0.57000363  0.64559512    -0.75300
C500        C  0.93640328  0.74419080  0.73596264     0.92900
O501        O  0.80396386  0.74155214  0.64656073    -0.75100
O502        O  0.90472928  0.75583224  0.73489478    -0.82600
Mg503      Mg  0.76099137  0.67310897  0.62782588     1.58000
C504        C  0.97927508  0.64434940  0.68114538     0.92800
O505        O  0.71676272  0.61086897  0.60621155    -0.80900
H506        H  0.82475929  0.54311780  0.65716426    -0.06200
C507        C  0.93161013  0.74302265  0.67269959     0.87700
O508        O  0.75918027  0.62561694  0.70660292    -0.75400
O509        O  0.82143008  0.66507290  0.62352090    -0.88100
O510        O  0.96392169  0.64052996  0.66222760    -0.80900
C511        C  0.90832053  0.61443560  0.59864829     0.92900
C512        C  0.72322538  0.58599875  0.59264855     0.92800
Mg513      Mg  0.89431163  0.65690955  0.70042813     1.58000
O514        O  0.93645588  0.71500384  0.72289555    -0.80900
O515        O  0.85256472  0.58927150  0.68151020    -0.75100
O516        O  0.86586217  0.60552660  0.59815690    -0.80900
O517        O  0.69601042  0.67978897  0.63134645    -0.82700
O518        O  0.79319669  0.72836707  0.73095485    -0.81000
C519        C  0.84397099  0.57936033  0.66191262     0.87200
O520        O  0.83520618  0.66674283  0.70495630    -0.88100
O521        O  0.91300894  0.70010273  0.67207910    -0.88200
O522        O  0.91420295  0.76305102  0.68364347    -0.75300
Mg523      Mg  0.80751433  0.59399282  0.62228522     1.58000
O524        O  0.93491127  0.63636101  0.61425497    -0.82700
H525        H  0.69600189  0.56789615  0.66598707    -0.06400
O526        O  0.80356953  0.72347740  0.68027464    -0.87900
H527        H  0.83496602  0.78959265  0.67002050    -0.06200
H528        H  0.80233858  0.61049575  0.72372895    -0.06400
C529        C  0.81466130  0.75300510  0.66597359     0.87200
C530        C  0.72679083  0.58935765  0.65646381     0.87800
C531        C  0.79938378  0.63369159  0.71243293     0.87800
H532        H  0.96297316  0.76401191  0.66340337    -0.06400
O533        O  0.89740196  0.70777977  0.62210581    -0.75400
Mg534      Mg  0.85179343  0.73925362  0.70673854     1.58000
H535        H  0.85344226  0.72182021  0.60499291    -0.06400
C536        C  0.67818091  0.68998276  0.64696011     0.92800
O537        O  0.72476590  0.69921576  0.71432476    -0.82600
C538        C  0.75088032  0.72009174  0.73026197     0.92900
O539        O  0.75722446  0.57800817  0.59432136    -0.82600
Mg540      Mg  0.92433255  0.66996586  0.64367722     1.58200
O541        O  0.69447151  0.69453994  0.66580887    -0.80900
O542        O  0.95950618  0.65146587  0.69692218    -0.82600
C543        C  0.60380724  0.83771774  0.87190916    -0.10700
C544        C  0.59668267  0.79621683  0.88103745    -0.04600
C545        C  0.60849283  0.76658844  0.87029344    -0.10700
C546        C  0.62767803  0.77827241  0.84949139     0.10200
C547        C  0.63631784  0.82109658  0.84019004    -0.02500
C548        C  0.62435762  0.85100792  0.85147527     0.10000
C549        C  0.63342908  0.89332839  0.84212021    -0.12500
C550        C  0.65582838  0.90713529  0.82244591    -0.12500
C551        C  0.66694554  0.87763836  0.81070523     0.10000
C552        C  0.65668086  0.83394586  0.81954560    -0.02500
C553        C  0.63864086  0.74864265  0.83784607    -0.12600
C554        C  0.65753916  0.76070043  0.81733247    -0.12600
C555        C  0.66712569  0.80331253  0.80792094     0.10200
C556        C  0.68692732  0.81619963  0.78721685    -0.10700
C557        C  0.69787665  0.86003767  0.77895922    -0.04600
C558        C  0.68814913  0.89080548  0.79036508    -0.10700
H559        H  0.62426625  0.91666535  0.85020596     0.07500
H560        H  0.66349808  0.94087456  0.81630778     0.07500
H561        H  0.63242763  0.71575704  0.84449869     0.07700
H562        H  0.66484136  0.73637043  0.80894894     0.07700
H563        H  0.58098082  0.78643675  0.89680431     0.04100
H564        H  0.71461629  0.87056471  0.76345042     0.04100
C565        C  0.05753662  0.56599530  0.46309795    -0.10700
C566        C  0.06482891  0.53373275  0.45157392    -0.04600
C567        C  0.05096681  0.48901078  0.45956753    -0.10700
C568        C  0.02812652  0.47523843  0.47955182     0.10200
C569        C  0.01919541  0.50674702  0.49122835    -0.02500
C570        C  0.03411936  0.55231948  0.48307084     0.10000
C571        C  0.02560304  0.58308178  0.49519899    -0.12500
C572        C  0.00271338  0.56944986  0.51482367    -0.12500
C573        C  0.98723327  0.52442497  0.52306041     0.10000
C574        C  0.99543154  0.49267241  0.51117334    -0.02500
C575        C  0.01377850  0.43065812  0.48808205    -0.12600
C576        C  0.98961178  0.41654874  0.50738581    -0.12600
C577        C  0.98002693  0.44694364  0.51920261     0.10200
C578        C  0.95541079  0.43291161  0.53884248    -0.10700
C579        C  0.94820311  0.46504318  0.55045488    -0.04600
C580        C  0.96413370  0.51050112  0.54299966    -0.10700
H581        H  0.03693150  0.61819765  0.48969026     0.07500
H582        H  0.99740535  0.59472681  0.52354344     0.07500
H583        H  0.02046966  0.40590876  0.47969069     0.07700
H584        H  0.97851843  0.38154304  0.51298666     0.07700
H585        H  0.08167687  0.54361147  0.43606211     0.04100
H586        H  0.92999065  0.45453053  0.56565195     0.04100
C587        C  0.43718732  0.49592327  0.46456399    -0.10700
C588        C  0.46875126  0.53932998  0.45605106    -0.04600
C589        C  0.51458032  0.56470312  0.46341733    -0.10700
C590        C  0.52968342  0.54735247  0.48038757     0.10200
C591        C  0.49757423  0.50402752  0.48985590    -0.02500
C592        C  0.45113043  0.47796161  0.48182993     0.10000
C593        C  0.42017628  0.43470709  0.49113005    -0.12500
C594        C  0.43420407  0.41774515  0.50832825    -0.12500
C595        C  0.47985848  0.44325228  0.51664480     0.10000
C596        C  0.51221054  0.48630813  0.50705271    -0.02500
C597        C  0.57607654  0.57153168  0.48775748    -0.12600
C598        C  0.59073044  0.55361569  0.50431106    -0.12600
C599        C  0.55908980  0.51175770  0.51464785     0.10200
C600        C  0.57289436  0.49453186  0.53236728    -0.10700
C601        C  0.53990559  0.45270256  0.54196724    -0.04600
C602        C  0.49421948  0.42672483  0.53424169    -0.10700
H603        H  0.38465207  0.41400382  0.48533063     0.07500
H604        H  0.40895822  0.38429788  0.51501081     0.07500
H605        H  0.60156257  0.60430766  0.48058006     0.07700
H606        H  0.62718191  0.57301345  0.50893961     0.07700
H607        H  0.45833824  0.55235030  0.44239745     0.04100
H608        H  0.54964733  0.44051304  0.55610798     0.04100
C609        C  0.45767774  0.95826121  0.45637238    -0.10700
C610        C  0.49628054  0.95492221  0.44928405    -0.04600
C611        C  0.53767356  0.97293434  0.46116915    -0.10700
C612        C  0.54036281  0.99450370  0.48106462     0.10200
C613        C  0.50127129  0.99793792  0.48855575    -0.02500
C614        C  0.45976810  0.97963034  0.47620081     0.10000
C615        C  0.42153639  0.98338546  0.48391131    -0.12500
C616        C  0.42411665  0.00529551  0.50326384    -0.12500
C617        C  0.46456804  0.02323870  0.51590540     0.10000
C618        C  0.50357496  0.01953349  0.50849713    -0.02500
C619        C  0.58096705  0.01278164  0.49362794    -0.12600
C620        C  0.58335910  0.03423068  0.51311129    -0.12600
C621        C  0.54490567  0.03740968  0.52096916     0.10200
C622        C  0.54665563  0.05809064  0.54096805    -0.10700
C623        C  0.50827906  0.06208339  0.54784738    -0.04600
C624        C  0.46720326  0.04478530  0.53579089    -0.10700
H625        H  0.38933330  0.96973704  0.47490194     0.07500
H626        H  0.39392839  0.00774768  0.50835817     0.07500
H627        H  0.61137310  0.01086816  0.48839506     0.07700
H628        H  0.61561666  0.04808387  0.52209181     0.07700
H629        H  0.49406049  0.93795455  0.43417702     0.04100
H630        H  0.51014091  0.07835490  0.56311369     0.04100
O631        O  0.01948873  0.94275400  0.01504980    -0.88200
C632        C  0.09180337  0.04708873  0.97258426     0.87800
Mg633      Mg  0.95124297  0.88536783  0.00803148     1.58100
O634        O  0.05062372  0.07864678  0.01822020    -0.87900
O635        O  0.06083837  0.99608414  0.03874318    -0.75300
C636        C  0.83369076  0.99030897  0.97922226     0.92900
O637        O  0.01673190  0.93773450  0.96376697    -0.75100
O638        O  0.83203556  0.95125304  0.97646060    -0.82600
Mg639      Mg  0.07080794  0.95737027  0.99089371     1.58000
C640        C  0.97969976  0.15297589  0.00769707     0.92800
O641        O  0.12634038  0.97167893  0.01610173    -0.80900
H642        H  0.04646659  0.08148176  0.04995078    -0.06200
C643        C  0.96730321  0.04539738  0.96464913     0.87700
O644        O  0.91657767  0.91745755  0.02848197    -0.75400
O645        O  0.08445409  0.02781183  0.99014323    -0.88100
O646        O  0.01952469  0.15650847  0.00431957    -0.80900
C647        C  0.15711498  0.17283852  0.99902503     0.92900
C648        C  0.16521753  0.00822407  0.01938936     0.92800
Mg649      Mg  0.92891069  0.03983969  0.00868266     1.58000
O650        O  0.87064720  0.02648070  0.98529829    -0.80900
O651        O  0.98434213  0.05803593  0.03475155    -0.75100
O652        O  0.15842956  0.13620924  0.00463723    -0.80900
O653        O  0.05819929  0.88432563  0.99218496    -0.82700
O654        O  0.84121572  0.86241353  0.99055210    -0.81000
C655        C  0.02831137  0.07373916  0.03484757     0.87200
O656        O  0.91389062  0.96902141  0.00773359    -0.88100
O657        O  0.97859379  0.05528634  0.98349791    -0.88200
O658        O  0.93827930  0.00401949  0.95903706    -0.75300
Mg659      Mg  0.10755720  0.06411716  0.01975265     1.58000
O660        O  0.11880964  0.17110617  0.99449835    -0.82700
H661        H  0.01379579  0.92881060  0.04633997    -0.06400
O662        O  0.95051966  0.92153081  0.97926278    -0.87900
H663        H  0.95579522  0.91636843  0.94770130    -0.06200
H664        H  0.88679517  0.95606891  0.03717624    -0.06400
C665        C  0.97320664  0.92449540  0.96299422     0.87200
C666        C  0.03049050  0.95444168  0.03382704     0.87800
C667        C  0.90452737  0.94780132  0.02485780     0.87800
H668        H  0.98326649  0.07235079  0.95262625    -0.06400
O669        O  0.07936905  0.07704659  0.96869850    -0.75400
Mg670      Mg  0.89277527  0.93545650  0.97717464     1.58000
H671        H  0.10807666  0.03739528  0.96011698    -0.06400
C672        C  0.02071935  0.84546482  0.99153663     0.92800
O673        O  0.87947365  0.82596195  0.00042135    -0.82600
C674        C  0.84166148  0.82506641  0.99521872     0.92900
O675        O  0.16804263  0.04813973  0.02009134    -0.82600
Mg676      Mg  0.04710157  0.11189733  0.98890372     1.58200
O677        O  0.98073942  0.84291378  0.99158019    -0.80900
O678        O  0.94295472  0.11357979  0.00941299    -0.82600
O679        O  0.61426914  0.36158810  0.32099170    -0.88200
C680        C  0.70997758  0.40994386  0.36938461     0.87800
Mg681      Mg  0.55907028  0.28978506  0.32051864     1.58100
O682        O  0.75104657  0.39236187  0.32008709    -0.87900
O683        O  0.67280545  0.41232630  0.30167236    -0.75300
C684        C  0.66189945  0.16557465  0.33548890     0.92900
O685        O  0.59873021  0.33010209  0.37049320    -0.75100
O686        O  0.62374563  0.16532120  0.33898023    -0.82600
Mg687      Mg  0.62265820  0.39741820  0.35099348     1.58000
C688        C  0.83439435  0.33102192  0.31989479     0.92800
O689        O  0.64466465  0.46950739  0.33599702    -0.80900
H690        H  0.76675744  0.40849778  0.28929750    -0.06200
C691        C  0.71239927  0.28728167  0.36325423     0.87700
O692        O  0.59981030  0.26996951  0.29664918    -0.75400
O693        O  0.69465502  0.41288768  0.35182155    -0.88100
O694        O  0.83010353  0.36404293  0.32777131    -0.80900
C695        C  0.84290348  0.49031205  0.34555167     0.92900
C696        C  0.68359292  0.50649291  0.33227860     0.92800
Mg697      Mg  0.72082662  0.27335730  0.31567036     1.58000
O698        O  0.69987729  0.20244722  0.33067103    -0.80900
O699        O  0.74402893  0.34064502  0.29655685    -0.75100
O700        O  0.80714413  0.49426428  0.34121654    -0.80900
O701        O  0.54593254  0.38039326  0.35019067    -0.82700
O702        O  0.53889947  0.17659158  0.32444820    -0.81000
C703        C  0.75495835  0.38201793  0.30157770     0.87200
O704        O  0.64855408  0.25762611  0.31549304    -0.88100
O705        O  0.72735761  0.30711434  0.34595651    -0.88200
O706        O  0.66949100  0.25752920  0.36591426    -0.75300
Mg707      Mg  0.73663602  0.44812424  0.32397376     1.58000
O708        O  0.83938543  0.45085794  0.34848724    -0.82700
H709        H  0.60694784  0.37220027  0.29016828    -0.06400
O710        O  0.59136096  0.27745490  0.34742637    -0.87900
H711        H  0.57593453  0.26244216  0.37832137    -0.06200
H712        H  0.64347151  0.24945366  0.28382528    -0.06400
C713        C  0.58775291  0.28850095  0.36584018     0.87200
C714        C  0.62995571  0.38164191  0.30380146     0.87800
C715        C  0.63115178  0.25826671  0.29813458     0.87800
H716        H  0.73607830  0.29678001  0.37664376    -0.06400
O717        O  0.73937599  0.39586026  0.37120263    -0.75400
Mg718      Mg  0.60683926  0.22223170  0.34332567     1.58000
H719        H  0.69686533  0.41811219  0.38360813    -0.06400
C720        C  0.50943787  0.34080891  0.34733504     0.92800
O721        O  0.49973055  0.21479433  0.32203861    -0.82600
C722        C  0.50029913  0.17671430  0.32353065     0.92900
O723        O  0.72141961  0.50608456  0.32889757    -0.82600
Mg724      Mg  0.78104400  0.37770130  0.34751810     1.58200
O725        O  0.51141885  0.30566762  0.34054451    -0.80900
O726        O  0.79873310  0.29140876  0.31584697    -0.82600
O727        O  0.26910512  0.69259259  0.65675420    -0.88200
C728        C  0.36871561  0.74094144  0.70286783     0.87800
Mg729      Mg  0.21504729  0.62133683  0.65730396     1.58100
O730        O  0.40595059  0.72434856  0.65240757    -0.87900
O731        O  0.32516000  0.74191989  0.63592769    -0.75300
C732        C  0.32050355  0.49800474  0.66585283     0.92900
O733        O  0.25867985  0.66066843  0.70600025    -0.75100
O734        O  0.28248977  0.49771952  0.66976819    -0.82600
Mg735      Mg  0.27937974  0.72781133  0.68667909     1.58000
C736        C  0.49171874  0.66594048  0.64856589     0.92800
O737        O  0.29877490  0.79868810  0.67158574    -0.80900
H738        H  0.41993460  0.74224339  0.62166142    -0.06200
C739        C  0.37365528  0.61965748  0.69452210     0.87700
O740        O  0.25348341  0.60337839  0.63127154    -0.75400
O741        O  0.35116761  0.74354251  0.68586529    -0.88100
O742        O  0.48793423  0.69882484  0.65702254    -0.80900
C743        C  0.49699355  0.82412277  0.67753997     0.92900
C744        C  0.33645571  0.83534562  0.66617229     0.92800
Mg745      Mg  0.37737275  0.60696152  0.64671738     1.58000
O746        O  0.35822440  0.53569047  0.66155625    -0.80900
O747        O  0.39844741  0.67421478  0.62796545    -0.75100
O748        O  0.45877374  0.82449983  0.67504534    -0.80900
O749        O  0.20275567  0.71029019  0.68654385    -0.82700
O750        O  0.19693965  0.50928658  0.65815609    -0.81000
C751        C  0.40911085  0.71514560  0.63361902     0.87200
O752        O  0.30486715  0.59096393  0.64796557    -0.88100
O753        O  0.38692305  0.64040416  0.67731817    -0.88200
O754        O  0.33119439  0.58896562  0.69761211    -0.75300
Mg755      Mg  0.39006805  0.77848207  0.65739701     1.58000
O756        O  0.49783732  0.78627224  0.67847893    -0.82700
H757        H  0.25787365  0.70149070  0.62620404    -0.06400
O758        O  0.25168120  0.60938140  0.68224061    -0.87900
H759        H  0.23990110  0.59359131  0.71327982    -0.06200
H760        H  0.29665161  0.58482615  0.61629145    -0.06400
C761        C  0.24945692  0.61972476  0.70095641     0.87200
C762        C  0.28258768  0.71172062  0.63921353     0.87800
C763        C  0.28556592  0.59243370  0.63127742     0.87800
H764        H  0.39847159  0.62881753  0.70742706    -0.06400
O765        O  0.39951734  0.72842094  0.70349736    -0.75400
Mg766      Mg  0.26633506  0.55431258  0.67615343     1.58000
H767        H  0.35663548  0.74830945  0.71763063    -0.06400
C768        C  0.16652400  0.67013568  0.68519058     0.92800
O769        O  0.15718708  0.54699752  0.65905914    -0.82600
C770        C  0.15821726  0.50916582  0.65878036     0.92900
O771        O  0.37425611  0.83541915  0.66227595    -0.82600
Mg772      Mg  0.44019283  0.71161381  0.67845659     1.58200
O773        O  0.17041005  0.63457218  0.68102271    -0.80900
O774        O  0.45556884  0.62617665  0.64522769    -0.82600
C775        C  0.06043378  0.68743931  0.69404962    -0.05600
C776        C  0.02490241  0.64681942  0.68445891     0.00300
C777        C  0.03522756  0.61302448  0.67654302    -0.08300
C778        C  0.08130289  0.62127659  0.67838847    -0.05700
C779        C  0.11802818  0.66320878  0.68688529     0.00300
C780        C  0.10723836  0.69705616  0.69496537    -0.08200
C781        C  0.14435948  0.74354212  0.70402878     0.62200
H782        H  0.05157823  0.71308320  0.69973293     0.12900
H783        H  0.08923381  0.59553992  0.67200843     0.12900
C784        C  0.99797338  0.56874352  0.66594566     0.62400
F785        F  0.12505968  0.76905244  0.71238035    -0.22800
F786        F  0.17526844  0.77029537  0.68809667    -0.20100
F787        F  0.16840441  0.73604552  0.72022911    -0.19800
F788        F  0.98579451  0.57946673  0.64650060    -0.19800
F789        F  0.95867722  0.54712258  0.67886007    -0.20100
F790        F  0.01359594  0.53739509  0.66233309    -0.22800
C791        C  0.59927523  0.65741074  0.63066820    -0.05600
C792        C  0.63434155  0.69190820  0.64362834     0.00300
C793        C  0.62364847  0.72177661  0.65545290    -0.08300
C794        C  0.57690038  0.71184124  0.65641203    -0.05700
C795        C  0.54064484  0.67506080  0.64470508     0.00300
C796        C  0.55275192  0.64916453  0.63058345    -0.08200
C797        C  0.51738132  0.61307428  0.61546339     0.62200
H798        H  0.60774763  0.63491714  0.62153982     0.12900
H799        H  0.56885417  0.73297734  0.66675178     0.12900
C800        C  0.66013934  0.76407771  0.66753010     0.62400
F801        F  0.53850953  0.59776051  0.60092020    -0.22800
F802        F  0.49494867  0.63224492  0.60410517    -0.20100
F803        F  0.48478972  0.57481098  0.62683987    -0.19800
F804        F  0.70502068  0.77917180  0.66002491    -0.19800
F805        F  0.65791772  0.75322208  0.68896126    -0.20100
F806        F  0.65147525  0.80082031  0.66516227    -0.22800
C807        C  0.68905172  0.73695096  0.74348452    -0.05600
C808        C  0.73215951  0.73859102  0.74739729     0.00300
C809        C  0.75713407  0.76143397  0.76632320    -0.08300
C810        C  0.74035748  0.78514095  0.77916150    -0.05700
C811        C  0.69935258  0.78606744  0.77416439     0.00300
C812        C  0.67218411  0.76011234  0.75656012    -0.08200
C813        C  0.62572054  0.75732181  0.75152804     0.62200
H814        H  0.66911839  0.71883417  0.72949841     0.12900
H815        H  0.76004427  0.80463596  0.79298209     0.12900
C816        C  0.80186063  0.76230350  0.77299953     0.62400
F817        F  0.63314775  0.80086188  0.74577434    -0.22800
F818        F  0.59692920  0.74176509  0.76930083    -0.20100
F819        F  0.60265651  0.72693415  0.73491179    -0.19800
F820        F  0.83783583  0.79114269  0.75937619    -0.19800
F821        F  0.79549236  0.71761038  0.77253014    -0.20100
F822        F  0.81503289  0.77906278  0.79354352    -0.22800
C823        C  0.68117853  0.52406409  0.56538160    -0.05600
C824        C  0.69004698  0.56652648  0.57444593     0.00300
C825        C  0.66696899  0.58966949  0.56584220    -0.08300
C826        C  0.63006523  0.56562519  0.55145047    -0.05700
C827        C  0.61884109  0.52169080  0.54346345     0.00300
C828        C  0.64711026  0.50203643  0.54941967    -0.08200
C829        C  0.64288341  0.45813139  0.53962711     0.62200
H830        H  0.70061886  0.50751548  0.57095770     0.12900
H831        H  0.60846472  0.58055271  0.54696087     0.12900
C832        C  0.68048871  0.63947215  0.57157098     0.62400
F833        F  0.68639665  0.46743243  0.53227431    -0.22800
F834        F  0.61236173  0.44187424  0.52256585    -0.20100
F835        F  0.62783418  0.42358302  0.55502474    -0.19800
F836        F  0.72874103  0.66723519  0.57236694    -0.19800
F837        F  0.66127304  0.64005354  0.59106317    -0.20100
F838        F  0.66425586  0.65884734  0.55655331    -0.22800
C839        C  0.96684482  0.59205714  0.58654123    -0.05600
C840        C  0.92597215  0.59439938  0.58189898     0.00300
C841        C  0.90094173  0.57282395  0.56282552    -0.08300
C842        C  0.91522706  0.54648070  0.55047170    -0.05700
C843        C  0.95388507  0.54188766  0.55607361     0.00300
C844        C  0.98126682  0.56618516  0.57390285    -0.08200
C845        C  0.02530368  0.56437032  0.57951219     0.62200
H846        H  0.98662082  0.60900362  0.60074803     0.12900
H847        H  0.89546867  0.52802217  0.53647080     0.12900
C848        C  0.85899201  0.57652009  0.55531818     0.62400
F849        F  0.04827198  0.59215826  0.59689040    -0.22800
F850        F  0.05585806  0.57988721  0.56234299    -0.20100
F851        F  0.01398147  0.51909686  0.58439232    -0.19800
F852        F  0.86904619  0.62244630  0.55624703    -0.19800
F853        F  0.82043794  0.54880716  0.56793380    -0.20100
F854        F  0.84737220  0.56183336  0.53441475    -0.22800
C855        C  0.54248675  0.90259177  0.66216993    -0.05600
C856        C  0.54161791  0.86916606  0.67634874     0.00300
C857        C  0.58347040  0.87834961  0.68693512    -0.08300
C858        C  0.62468046  0.92099107  0.68283050    -0.05700
C859        C  0.62556262  0.95386597  0.66827040     0.00300
C860        C  0.58360749  0.94465061  0.65780745    -0.08200
C861        C  0.58167240  0.97906353  0.64227300     0.62200
H862        H  0.51056300  0.89483886  0.65388192     0.12900
H863        H  0.65688197  0.92902130  0.69093928     0.12900
C864        C  0.58475384  0.84430273  0.70287457     0.62400
F865        F  0.53658325  0.96443975  0.63522133    -0.22800
F866        F  0.60888944  0.98374992  0.62464040    -0.20100
F867        F  0.59808180  0.02199601  0.65197083    -0.19800
F868        F  0.57854857  0.80474200  0.69250071    -0.19800
F869        F  0.54972551  0.83203991  0.71793428    -0.20100
F870        F  0.62719030  0.86346317  0.71346793    -0.22800
C871        C  0.06263247  0.38947885  0.67747602    -0.05600
C872        C  0.02264241  0.38756930  0.66853089     0.00300
C873        C  0.02769731  0.42436956  0.65501543    -0.08300
C874        C  0.07290548  0.46268288  0.65166910    -0.05700
C875        C  0.11307113  0.46454454  0.66055199     0.00300
C876        C  0.10796505  0.42671896  0.67339722    -0.08200
C877        C  0.14973010  0.42531199  0.68300283     0.62200
H878        H  0.05810463  0.36031260  0.68717068     0.12900
H879        H  0.07731805  0.49182131  0.64199803     0.12900
C880        C  0.98573796  0.42429439  0.64473631     0.62400
F881        F  0.13618923  0.38591612  0.69541776    -0.22800
F882        F  0.17506784  0.46389017  0.69581935    -0.20100
F883        F  0.17808925  0.42466686  0.66684020    -0.19800
F884        F  0.99838508  0.46574839  0.63416769    -0.19800
F885        F  0.95317994  0.41811556  0.66025226    -0.20100
F886        F  0.96520254  0.38893279  0.62989530    -0.22800
C887        C  0.75058690  0.97220762  0.78359919    -0.05600
C888        C  0.70361320  0.93778704  0.78104807     0.00300
C889        C  0.67332249  0.94794314  0.76914280    -0.08300
C890        C  0.69225832  0.99148909  0.75879761    -0.05700
C891        C  0.74061988  0.02474832  0.75940841     0.00300
C892        C  0.76984125  0.01577607  0.77313625    -0.08200
C893        C  0.82115847  0.05094364  0.77662362     0.62200
H894        H  0.77261478  0.96375109  0.79330066     0.12900
H895        H  0.66937818  0.99865625  0.74907485     0.12900
C896        C  0.62165255  0.91224958  0.76665185     0.62400
F897        F  0.84075173  0.03693163  0.79252267    -0.22800
F898        F  0.82536432  0.09303452  0.78277652    -0.20100
F899        F  0.84632124  0.05665624  0.75808373    -0.19800
F900        F  0.59880650  0.92840216  0.75359045    -0.19800
F901        F  0.59963560  0.90181381  0.78629088    -0.20100
F902        F  0.61684828  0.87184859  0.75779843    -0.22800
C903        C  0.63178800  0.06500834  0.58373750    -0.05600
C904        C  0.66196705  0.11358104  0.58554414     0.00300
C905        C  0.65438516  0.14386435  0.57192684    -0.08300
C906        C  0.61740070  0.12405030  0.55704044    -0.05700
C907        C  0.58762544  0.07569911  0.55552263     0.00300
C908        C  0.59426271  0.04556225  0.56928535    -0.08200
C909        C  0.56119126  0.99310731  0.56906190     0.62200
H910        H  0.63784174  0.04187254  0.59375148     0.12900
H911        H  0.61077861  0.14624238  0.54656053     0.12900
C912        C  0.68383224  0.19671706  0.57323367     0.62400
F913        F  0.51553627  0.98354477  0.57151540    -0.22800
F914        F  0.57055572  0.97076152  0.58539605    -0.20100
F915        F  0.56533427  0.97456305  0.54999892    -0.19800
F916        F  0.72921874  0.21108890  0.56671287    -0.19800
F917        F  0.68395239  0.21112825  0.59395900    -0.20100
F918        F  0.66651509  0.21869268  0.56029872    -0.22800
C919        C  0.97131213  0.37785827  0.55938782    -0.05600
C920        C  0.93875343  0.38602508  0.54865888     0.00300
C921        C  0.89073627  0.35172783  0.54938331    -0.08300
C922        C  0.87606552  0.31358755  0.56348160    -0.05700
C923        C  0.90821611  0.30824847  0.57635570     0.00300
C924        C  0.95706581  0.33861500  0.57268341    -0.08200
C925        C  0.99460161  0.33085630  0.58283965     0.62200
H926        H  0.00814368  0.40366619  0.55802319     0.12900
H927        H  0.83896839  0.28945678  0.56548147     0.12900
C928        C  0.85528070  0.35609120  0.53555435     0.62400
F929        F  0.03651238  0.35429047  0.57175378    -0.22800
F930        F  0.98089637  0.28386400  0.58264280    -0.20100
F931        F  0.00264366  0.34704449  0.60359080    -0.19800
F932        F  0.87010576  0.36280290  0.51452384    -0.19800
F933        F  0.85074519  0.39358881  0.54213483    -0.20100
F934        F  0.81159316  0.31633549  0.53654767    -0.22800
C935        C  0.01543581  0.80403004  0.78483148    -0.05600
C936        C  0.04891795  0.78979370  0.78236865     0.00300
C937        C  0.04385965  0.75893056  0.76578107    -0.08300
C938        C  0.00707486  0.74586708  0.75123761    -0.05700
C939        C  0.97398931  0.76142565  0.75284362     0.00300
C940        C  0.97732603  0.78962062  0.77065285    -0.08200
C941        C  0.94112608  0.80417033  0.77505086     0.62200
H942        H  0.02054302  0.82811349  0.79761778     0.12900
H943        H  0.00463384  0.72338887  0.73819721     0.12900
C944        C  0.07780640  0.74051402  0.76323109     0.62400
F945        F  0.95031366  0.82954954  0.79373485    -0.22800
F946        F  0.89763313  0.76472214  0.77718662    -0.20100
F947        F  0.94056761  0.83165177  0.75851293    -0.19800
F948        F  0.07745707  0.71691167  0.78151342    -0.19800
F949        F  0.12262495  0.77699770  0.75974824    -0.20100
F950        F  0.06599591  0.70990184  0.74628059    -0.22800
C951        C  0.02936308  0.27864962  0.74676993    -0.05600
C952        C  0.99037718  0.23494538  0.75208306     0.00300
C953        C  0.99122425  0.21428565  0.77197695    -0.08300
C954        C  0.03079518  0.23802480  0.78537013    -0.05700
C955        C  0.06923134  0.28136992  0.77976933     0.00300
C956        C  0.06797331  0.30257185  0.76036046    -0.08200
C957        C  0.10727110  0.34965947  0.75292185     0.62200
H958        H  0.02993944  0.29501224  0.73168445     0.12900
H959        H  0.03313657  0.22187415  0.80002067     0.12900
C960        C  0.95143254  0.16734583  0.77915648     0.62400
F961        F  0.13256072  0.34295303  0.73705135    -0.22800
F962        F  0.13733207  0.37506791  0.76925372    -0.20100
F963        F  0.08863612  0.37592417  0.74473182    -0.19800
F964        F  0.94654258  0.13314441  0.76498609    -0.19800
F965        F  0.91038852  0.16914969  0.78013350    -0.20100
F966        F  0.95923329  0.15487938  0.79920242    -0.22800
C967        C  0.34268668  0.39820258  0.65222262    -0.05600
C968        C  0.30451578  0.36076371  0.66238044     0.00300
C969        C  0.27392678  0.36910994  0.67514890    -0.08300
C970        C  0.28177466  0.41489136  0.67641696    -0.05700
C971        C  0.31925804  0.45242081  0.66565268     0.00300
C972        C  0.35101887  0.44406066  0.65360754    -0.08200
C973        C  0.39352119  0.48258672  0.64217360     0.62200
H974        H  0.36702716  0.39126398  0.64358265     0.12900
H975        H  0.25832935  0.42166745  0.68595887     0.12900
C976        C  0.23288093  0.33017785  0.68714126     0.62400
F977        F  0.41843297  0.46567007  0.63109746    -0.22800
F978        F  0.42353225  0.51435474  0.65697987    -0.20100
F979        F  0.37957324  0.50475207  0.62758183    -0.19800
F980        F  0.24922690  0.31465645  0.70377268    -0.19800
F981        F  0.20658778  0.29353509  0.67346434    -0.20100
F982        F  0.20359108  0.34493806  0.69569973    -0.22800
C983        C  0.31240526  0.93313821  0.65331196    -0.05600
C984        C  0.34426417  0.96793797  0.66710180     0.00300
C985        C  0.37504266  0.95986280  0.67971366    -0.08300
C986        C  0.37114413  0.91565567  0.67886724    -0.05700
C987        C  0.33788266  0.88026700  0.66577359     0.00300
C988        C  0.30879222  0.88908677  0.65234348    -0.08200
C989        C  0.27546141  0.85278506  0.63666789     0.62200
H990        H  0.28959294  0.94048504  0.64358888     0.12900
H991        H  0.39379545  0.90812821  0.68861528     0.12900
C992        C  0.41281302  0.99813480  0.69322506     0.62400
F993        F  0.25353378  0.87019870  0.62375762    -0.22800
F994        F  0.24119368  0.81460477  0.64757664    -0.20100
F995        F  0.30009026  0.83859264  0.62367201    -0.19800
F996        F  0.39267892  0.01019094  0.70958966    -0.19800
F997        F  0.43961683  0.03694309  0.68063247    -0.20100
F998        F  0.44237592  0.98423435  0.70222079    -0.22800
C999        C  0.24690855  0.97427750  0.75044931    -0.05600
C1000       C  0.23101560  0.00697450  0.75099830     0.00300
C1001       C  0.19871317  0.00218171  0.76735791    -0.08300
C1002       C  0.18425936  0.96562680  0.78230011    -0.05700
C1003       C  0.19893728  0.93248588  0.78108502     0.00300
C1004       C  0.23060030  0.93655624  0.76483906    -0.08200
C1005       C  0.24581664  0.90026605  0.76225189     0.62200
H1006       H  0.27172014  0.97766212  0.73824902     0.12900
H1007       H  0.15886330  0.96076007  0.79451311     0.12900
C1008       C  0.17868416  0.03458158  0.76919821     0.62400
F1009       F  0.20710322  0.85669484  0.75930785    -0.22800
F1010       F  0.26946376  0.89942034  0.78029398    -0.20100
F1011       F  0.27518813  0.90960011  0.74484776    -0.19800
F1012       F  0.15798568  0.03572448  0.75017048    -0.19800
F1013       F  0.21447148  0.07846510  0.77428770    -0.20100
F1014       F  0.14493435  0.02082565  0.78503346    -0.22800
C1015       C  0.27916147  0.29815678  0.75447614    -0.05600
C1016       C  0.26801200  0.25093086  0.75545013     0.00300
C1017       C  0.23610769  0.22185852  0.77153560    -0.08300
C1018       C  0.21218849  0.23910980  0.78375905    -0.05700
C1019       C  0.21972248  0.28421783  0.78081381     0.00300
C1020       C  0.25529741  0.31524849  0.76687506    -0.08200
C1021       C  0.26666133  0.36562123  0.76469111     0.62200
H1022       H  0.30481122  0.32122613  0.74295726     0.12900
H1023       H  0.18559889  0.21674462  0.79514409     0.12900
C1024       C  0.22529048  0.17231405  0.77545121     0.62400
F1025       F  0.30434585  0.39088805  0.75117851    -0.22800
F1026       F  0.27778576  0.38696654  0.78444901    -0.20100
F1027       F  0.22832811  0.36711765  0.75660254    -0.19800
F1028       F  0.26674522  0.17151453  0.77775637    -0.19800
F1029       F  0.19965984  0.14459345  0.75853291    -0.20100
F1030       F  0.19923269  0.15366849  0.79388441    -0.22800
C1031       C  0.36883764  0.03220315  0.57196316    -0.05600
C1032       C  0.37568167  0.07795575  0.57135335     0.00300
C1033       C  0.40540593  0.10876905  0.55501354    -0.08300
C1034       C  0.43163046  0.09468548  0.54224208    -0.05700
C1035       C  0.42874617  0.05118793  0.54489609     0.00300
C1036       C  0.39513280  0.01843745  0.55915477    -0.08200
C1037       C  0.38886857  0.96990754  0.56160304     0.62200
H1038       H  0.34498272  0.00790186  0.58368457     0.12900
H1039       H  0.45730822  0.11896250  0.53103436     0.12900
C1040       C  0.41200265  0.15723701  0.55144822     0.62400
F1041       F  0.35355165  0.94288104  0.57593032    -0.22800
F1042       F  0.42990191  0.97300540  0.56889500    -0.20100
F1043       F  0.37749536  0.94740173  0.54213694    -0.19800
F1044       F  0.43806350  0.18646551  0.56789139    -0.19800
F1045       F  0.36884688  0.15487184  0.55032807    -0.20100
F1046       F  0.43544107  0.17683052  0.53253186    -0.22800
C1047       C  0.44722431  0.31310560  0.56418450    -0.05600
C1048       C  0.41484873  0.31561783  0.57805881     0.00300
C1049       C  0.40318519  0.35146625  0.57471432    -0.08300
C1050       C  0.42820407  0.38581449  0.55919393    -0.05700
C1051       C  0.46203110  0.38409203  0.54627238     0.00300
C1052       C  0.46974425  0.34577428  0.54788203    -0.08200
C1053       C  0.50156835  0.33795676  0.53297685     0.62200
H1054       H  0.45525709  0.28515654  0.56595501     0.12900
H1055       H  0.42294091  0.41557445  0.55755625     0.12900
C1056       C  0.36543246  0.35472167  0.58736440     0.62400
F1057       F  0.47806974  0.29249625  0.52560382    -0.22800
F1058       F  0.54087445  0.34490965  0.54400288    -0.20100
F1059       F  0.51544790  0.36712153  0.51537652    -0.19800
F1060       F  0.37997079  0.36660186  0.60819467    -0.19800
F1061       F  0.32397759  0.31252434  0.58681256    -0.20100
F1062       F  0.35619425  0.38832226  0.57917809    -0.22800
C1063       C  0.94032008  0.24225647  0.99700822    -0.05600
C1064       C  0.98015153  0.28315753  0.00339939     0.00300
C1065       C  0.01891464  0.28132893  0.01205609    -0.08300
C1066       C  0.01593792  0.23766594  0.01457224    -0.05700
C1067       C  0.97633668  0.19624819  0.00790837     0.00300
C1068       C  0.93786803  0.19856112  0.99865659    -0.08200
C1069       C  0.89556453  0.15602671  0.98931430     0.62200
H1070       H  0.91147721  0.24509207  0.99031536     0.12900
H1071       H  0.04539832  0.23573219  0.02111870     0.12900
C1072       C  0.06411057  0.32568832  0.01754464     0.62400
F1073       F  0.86520757  0.16760850  0.97928853    -0.22800
F1074       F  0.87079581  0.12435694  0.00532511    -0.20100
F1075       F  0.91017927  0.13531575  0.97426910    -0.19800
F1076       F  0.05591277  0.35013883  0.03323331    -0.19800
F1077       F  0.08125513  0.35348388  0.99954353    -0.20100
F1078       F  0.09833203  0.31633261  0.02485799    -0.22800
C1079       C  0.05984239  0.75408662  0.98939370    -0.05600
C1080       C  0.02662511  0.71991387  0.00308516     0.00300
C1081       C  0.99008318  0.72600601  0.01166961    -0.08300
C1082       C  0.98918279  0.76701003  0.00678182    -0.05700
C1083       C  0.02294461  0.80182325  0.99352731     0.00300
C1084       C  0.05889810  0.79527790  0.98447498    -0.08200
C1085       C  0.09523707  0.83053275  0.96923567     0.62200
H1086       H  0.08666431  0.74810718  0.98252538     0.12900
H1087       H  0.96224379  0.77264904  0.01375991     0.12900
C1088       C  0.95108412  0.68885560  0.02533244     0.62400
F1089       F  0.12089514  0.81297295  0.95932191    -0.22800
F1090       F  0.12622224  0.87024174  0.98023312    -0.20100
F1091       F  0.07332585  0.84216328  0.95351049    -0.19800
F1092       F  0.96949466  0.68338508  0.04417532    -0.19800
F1093       F  0.92931228  0.64687923  0.01449450    -0.20100
F1094       F  0.91721815  0.70055081  0.03046028    -0.22800
C1095       C  0.09348382  0.64112510  0.89667476    -0.05600
C1096       C  0.05793602  0.63978732  0.90977633     0.00300
C1097       C  0.04524635  0.67496034  0.90670938    -0.08300
C1098       C  0.07341519  0.71355836  0.89343964    -0.05700
C1099       C  0.11188864  0.71696786  0.88218899     0.00300
C1100       C  0.12020949  0.67881121  0.88271627    -0.08200
C1101       C  0.15791480  0.67841907  0.86891009     0.62200
H1102       H  0.10238159  0.61379745  0.89832465     0.12900
H1103       H  0.06636483  0.74225460  0.89225068     0.12900
C1104       C  0.00263004  0.67275394  0.91733215     0.62400
F1105       F  0.20158202  0.71128679  0.87622262    -0.22800
F1106       F  0.15280794  0.68860939  0.84800372    -0.20100
F1107       F  0.15538440  0.63528381  0.86919053    -0.19800
F1108       F  0.01272207  0.68743837  0.93827537    -0.19800
F1109       F  0.96518617  0.62763017  0.91668504    -0.20100
F1110       F  0.98899387  0.70115420  0.90696567    -0.22800
C1111       C  0.09054253  0.36734115  0.89733721    -0.05600
C1112       C  0.12906151  0.39884165  0.88519710     0.00300
C1113       C  0.14617805  0.44730714  0.88733129    -0.08300
C1114       C  0.12633796  0.46288610  0.90298629    -0.05700
C1115       C  0.08979400  0.43149804  0.91640603     0.00300
C1116       C  0.06986835  0.38256301  0.91271404    -0.08200
C1117       C  0.02733113  0.34589449  0.92486049     0.62200
H1118       H  0.07825006  0.33044716  0.89538757     0.12900
H1119       H  0.14034193  0.49996676  0.90524387     0.12900
C1120       C  0.18533095  0.48221483  0.87305621     0.62400
F1121       F  0.00930606  0.30212810  0.91577115    -0.22800
F1122       F  0.99206528  0.35724339  0.92475518    -0.20100
F1123       F  0.03977663  0.34293354  0.94562316    -0.19800
F1124       F  0.17250803  0.47137894  0.85192963    -0.19800
F1125       F  0.22607730  0.48083472  0.87669957    -0.20100
F1126       F  0.19464080  0.52740266  0.87661132    -0.22800
C1127       C  0.24604161  0.30363859  0.99532520    -0.05600
C1128       C  0.28336657  0.30541371  0.00683190     0.00300
C1129       C  0.28115815  0.26334592  0.01347479    -0.08300
C1130       C  0.23983725  0.22107077  0.00991455    -0.05700
C1131       C  0.20106235  0.21902844  0.99945624     0.00300
C1132       C  0.20482335  0.26119726  0.99126519    -0.08200
C1133       C  0.16652463  0.26237895  0.97810083     0.62200
H1134       H  0.24944514  0.33619062  0.98963632     0.12900
H1135       H  0.23740573  0.18912153  0.01582690     0.12900
C1136       C  0.32254904  0.26268720  0.02385970     0.62400
F1137       F  0.18158739  0.30579743  0.96897081    -0.22800
F1138       F  0.12834918  0.25236652  0.99090837    -0.20100
F1139       F  0.15302084  0.23032948  0.96168334    -0.19800
F1140       F  0.33016229  0.28287369  0.04375248    -0.19800
F1141       F  0.36227269  0.28711681  0.01140474    -0.20100
F1142       F  0.31495174  0.21777792  0.02642452    -0.22800
C1143       C  0.71945947  0.72508437  0.98080740    -0.05600
C1144       C  0.71990206  0.68724416  0.99073538     0.00300
C1145       C  0.75965385  0.69480410  0.00257296    -0.08300
C1146       C  0.79807661  0.74036753  0.00371417    -0.05700
C1147       C  0.79772078  0.77878814  0.99400574     0.00300
C1148       C  0.75704820  0.77097975  0.98250242    -0.08200
C1149       C  0.75225310  0.81001759  0.97198720     0.62200
H1150       H  0.68814079  0.71843231  0.97225489     0.12900
H1151       H  0.82869492  0.74630604  0.01264662     0.12900
C1152       C  0.76196107  0.65516525  0.01379950     0.62400
F1153       F  0.70936743  0.79356851  0.96204232    -0.22800
F1154       F  0.78675238  0.83206564  0.95666706    -0.20100
F1155       F  0.75565749  0.84184354  0.98720326    -0.19800
F1156       F  0.74924785  0.61838813  0.99985728    -0.19800
F1157       F  0.73201559  0.64020604  0.03117097    -0.20100
F1158       F  0.80664811  0.66881527  0.02112903    -0.22800
C1159       C  0.55384068  0.68413834  0.87798624    -0.05600
C1160       C  0.59783870  0.72304700  0.88161107     0.00300
C1161       C  0.62464203  0.72321912  0.89922558    -0.08300
C1162       C  0.60492060  0.68542216  0.91351050    -0.05700
C1163       C  0.55958342  0.64673921  0.91068119     0.00300
C1164       C  0.53409414  0.64577305  0.89208223    -0.08200
C1165       C  0.48610778  0.60534945  0.88698242     0.62200
H1166       H  0.53385849  0.68542703  0.86453719     0.12900
H1167       H  0.62542051  0.68691398  0.92731490     0.12900
C1168       C  0.67336620  0.76315801  0.90414647     0.62400
F1169       F  0.46943325  0.61081155  0.86753349    -0.22800
F1170       F  0.45465248  0.60184893  0.90254017    -0.20100
F1171       F  0.48861374  0.56484189  0.88598444    -0.19800
F1172       F  0.69208683  0.79564492  0.88785695    -0.19800
F1173       F  0.70333521  0.74566001  0.90754817    -0.20100
F1174       F  0.67147652  0.78548980  0.92242571    -0.22800
C1175       C  0.30434258  0.36407751  0.91785508    -0.05600
C1176       C  0.34664732  0.40569528  0.91346316     0.00300
C1177       C  0.34961278  0.43051052  0.89438109    -0.08300
C1178       C  0.30903764  0.41611144  0.88206184    -0.05700
C1179       C  0.26623509  0.37743166  0.88778919     0.00300
C1180       C  0.26398580  0.34958242  0.90534613    -0.08200
C1181       C  0.21901362  0.30505291  0.91088888     0.62200
H1182       H  0.30198584  0.34401379  0.93193581     0.12900
H1183       H  0.30979177  0.43635146  0.86828627     0.12900
C1184       C  0.39396844  0.47380555  0.88750748     0.62400
F1185       F  0.22497201  0.28178525  0.92793131    -0.22800
F1186       F  0.20457268  0.27545699  0.89350196    -0.20100
F1187       F  0.18426558  0.31520364  0.91626934    -0.19800
F1188       F  0.43183912  0.46650262  0.88901700    -0.19800
F1189       F  0.40048546  0.51034071  0.90043172    -0.20100
F1190       F  0.39157774  0.48595074  0.86657843    -0.22800
C1191       C  0.76712138  0.98521411  0.99852243    -0.05600
C1192       C  0.79053969  0.99346916  0.97900544     0.00300
C1193       C  0.77694494  0.01137259  0.96167910    -0.08300
C1194       C  0.73890562  0.01949885  0.96441290    -0.05700
C1195       C  0.71590470  0.01234735  0.98424521     0.00300
C1196       C  0.73036179  0.99468085  0.00165365    -0.08200
C1197       C  0.70748926  0.98551448  0.02356055     0.62200
H1198       H  0.77928586  0.97270656  0.01167831     0.12900
H1199       H  0.72737565  0.03230208  0.95114993     0.12900
C1200       C  0.80314125  0.02229065  0.94066520     0.62400
F1201       F  0.72472713  0.96485066  0.03736228    -0.22800
F1202       F  0.65965722  0.95595497  0.02186632    -0.20100
F1203       F  0.71638967  0.02732064  0.03251161    -0.19800
F1204       F  0.80323153  0.98290702  0.93323011    -0.19800
F1205       F  0.84888249  0.05749626  0.94360172    -0.20100
F1206       F  0.78286649  0.03673524  0.92529429    -0.22800
C1207       C  0.24713219  0.03845598  0.00850361    -0.05600
C1208       C  0.20836399  0.00431818  0.01981648     0.00300
C1209       C  0.21040521  0.96555872  0.02865000    -0.08300
C1210       C  0.25108219  0.96213047  0.02527169    -0.05700
C1211       C  0.28858848  0.99521703  0.01301272     0.00300
C1212       C  0.28712416  0.03448471  0.00479668    -0.08200
C1213       C  0.32795296  0.07243896  0.99228160     0.62200
H1214       H  0.24508689  0.06759165  0.00173458     0.12900
H1215       H  0.25360118  0.93308031  0.03182232     0.12900
C1216       C  0.17050869  0.92829405  0.04183184     0.62400
F1217       F  0.32012900  0.10858327  0.98664088    -0.22800
F1218       F  0.33485660  0.05398024  0.97375061    -0.20100
F1219       F  0.36819936  0.09088885  0.00449903    -0.19800
F1220       F  0.13311931  0.90034897  0.02878260    -0.19800
F1221       F  0.15634108  0.94902532  0.05705558    -0.20100
F1222       F  0.18385950  0.89981738  0.05233597    -0.22800
C1223       C  0.26416904  0.90484199  0.89408269    -0.05600
C1224       C  0.26263761  0.86694712  0.88328631     0.00300
C1225       C  0.29973008  0.85728754  0.88634610    -0.08300
C1226       C  0.33541188  0.88423293  0.90110936    -0.05700
C1227       C  0.33611703  0.92107916  0.91285682     0.00300
C1228       C  0.30002939  0.93223202  0.90874944    -0.08200
C1229       C  0.29797256  0.97201344  0.91991147     0.62200
H1230       H  0.23544423  0.91153014  0.89155904     0.12900
H1231       H  0.36247034  0.87518387  0.90386022     0.12900
C1232       C  0.30315983  0.81860882  0.87484591     0.62400
F1233       F  0.26388344  0.98011859  0.91131210    -0.22800
F1234       F  0.34054380  0.01272066  0.91780893    -0.20100
F1235       F  0.28736885  0.96137982  0.94127190    -0.19800
F1236       F  0.27084287  0.79854969  0.85861395    -0.19800
F1237       F  0.29651262  0.78427390  0.88938226    -0.20100
F1238       F  0.34729166  0.83648895  0.86589107    -0.22800
C1239       C  0.59572637  0.91617221  0.91331648    -0.05600
C1240       C  0.54669965  0.89720469  0.91474791     0.00300
C1241       C  0.51738802  0.86286767  0.89973102    -0.08300
C1242       C  0.53836014  0.84733006  0.88466852    -0.05700
C1243       C  0.58682994  0.86435382  0.88435238     0.00300
C1244       C  0.61630978  0.89975527  0.89862302    -0.08200
C1245       C  0.66894848  0.91848255  0.89902985     0.62200
H1246       H  0.61818632  0.94338486  0.92429864     0.12900
H1247       H  0.51682999  0.81983195  0.87358873     0.12900
C1248       C  0.46436724  0.84107982  0.89994425     0.62400
F1249       F  0.69100519  0.95268243  0.91435632    -0.22800
F1250       F  0.68846023  0.93783274  0.87949654    -0.20100
F1251       F  0.67794698  0.88265893  0.90351354    -0.19800
F1252       F  0.45217105  0.87471573  0.89546550    -0.19800
F1253       F  0.44690727  0.82143882  0.91973457    -0.20100
F1254       F  0.44314098  0.80619851  0.88485126    -0.22800
C1255       C  0.85591649  0.56689573  0.11495056    -0.05600
C1256       C  0.87563371  0.61564812  0.11514423     0.00300
C1257       C  0.91450965  0.64320984  0.10183081    -0.08300
C1258       C  0.93359499  0.62097434  0.08950225    -0.05700
C1259       C  0.91261752  0.57188337  0.08835314     0.00300
C1260       C  0.87260712  0.54425190  0.10132811    -0.08200
C1261       C  0.84554690  0.49131710  0.09999986     0.62200
H1262       H  0.82515233  0.54647862  0.12473075     0.12900
H1263       H  0.96428649  0.64215315  0.07986172     0.12900
C1264       C  0.93338616  0.69536564  0.09933751     0.62400
F1265       F  0.80502692  0.47215182  0.11218549    -0.22800
F1266       F  0.87292658  0.47324844  0.10735258    -0.20100
F1267       F  0.83261387  0.47776108  0.07908027    -0.19800
F1268       F  0.97107860  0.71567727  0.08543104    -0.19800
F1269       F  0.94807878  0.71748261  0.11876757    -0.20100
F1270       F  0.89855311  0.70300633  0.09138366    -0.22800
C1271       C  0.68863986  0.63722871  0.08432256    -0.05600
C1272       C  0.65044336  0.59168345  0.08735037     0.00300
C1273       C  0.65183792  0.56521534  0.10505112    -0.08300
C1274       C  0.69289877  0.58307987  0.11732788    -0.05700
C1275       C  0.73216118  0.62610280  0.11261450     0.00300
C1276       C  0.72979044  0.65459093  0.09646966    -0.08200
C1277       C  0.77136088  0.70230743  0.09160768     0.62200
H1278       H  0.68749559  0.65842995  0.07141792     0.12900
H1279       H  0.69564063  0.56261292  0.13018849     0.12900
C1280       C  0.61139372  0.51778445  0.11074945     0.62400
F1281       F  0.80859311  0.69746471  0.08459494    -0.22800
F1282       F  0.78440659  0.72940459  0.10982429    -0.20100
F1283       F  0.76119031  0.72554012  0.07594768    -0.19800
F1284       F  0.60634523  0.48631248  0.09505306    -0.19800
F1285       F  0.57106112  0.52082321  0.11265599    -0.20100
F1286       F  0.61826152  0.50117835  0.12993085    -0.22800
C1287       C  0.62645072  0.08592881  0.32190473    -0.05600
C1288       C  0.66063151  0.12064689  0.33497602     0.00300
C1289       C  0.69290113  0.11214075  0.34617737    -0.08300
C1290       C  0.68827496  0.06776000  0.34459203    -0.05700
C1291       C  0.65466220  0.03336576  0.33124221     0.00300
C1292       C  0.62382844  0.04254276  0.31927725    -0.08200
C1293       C  0.58852937  0.00692312  0.30396268     0.62200
H1294       H  0.60282188  0.09379702  0.31313810     0.12900
H1295       H  0.71210771  0.05996280  0.35323216     0.12900
C1296       C  0.73189647  0.14938932  0.35963164     0.62400
F1297       F  0.56002963  0.02215205  0.29496424    -0.22800
F1298       F  0.56031744  0.96555252  0.31465859    -0.20100
F1299       F  0.61176744  0.99883534  0.28756983    -0.19800
F1300       F  0.71329478  0.16671904  0.37445655    -0.19800
F1301       F  0.76325718  0.18534504  0.34666547    -0.20100
F1302       F  0.75661301  0.13203113  0.37052999    -0.22800
C1303       C  0.66664377  0.61068009  0.32389595    -0.05600
C1304       C  0.69308171  0.63941373  0.34094596     0.00300
C1305       C  0.71709853  0.62455798  0.35474500    -0.08300
C1306       C  0.71340986  0.58089514  0.35101479    -0.05700
C1307       C  0.68633989  0.55206356  0.33420686     0.00300
C1308       C  0.66301365  0.56708970  0.32019882    -0.08200
C1309       C  0.63632904  0.53816385  0.30100545     0.62200
H1310       H  0.64850386  0.62266136  0.31347674     0.12900
H1311       H  0.73102104  0.56839612  0.36149426     0.12900
C1312       C  0.74680399  0.65460873  0.37306058     0.62400
F1313       F  0.61712117  0.55981960  0.28907807    -0.22800
F1314       F  0.60022992  0.49527205  0.30755862    -0.20100
F1315       F  0.66651752  0.53147766  0.28800173    -0.19800
F1316       F  0.71814943  0.65675701  0.38865343    -0.19800
F1317       F  0.77757525  0.69918428  0.36580957    -0.20100
F1318       F  0.77295357  0.63677967  0.38221943    -0.22800
C1319       C  0.63382419  0.97885624  0.42531864    -0.05600
C1320       C  0.62676028  0.93323237  0.42776443     0.00300
C1321       C  0.59821367  0.90585936  0.44517632    -0.08300
C1322       C  0.57293944  0.92231005  0.45711056    -0.05700
C1323       C  0.57546059  0.96497197  0.45251435     0.00300
C1324       C  0.60826346  0.99496317  0.43721956    -0.08200
C1325       C  0.61426080  0.04275424  0.43265895     0.62200
H1326       H  0.65690587  0.00090128  0.41278878     0.12900
H1327       H  0.54813311  0.90032477  0.46918567     0.12900
C1328       C  0.59192974  0.85848293  0.45072290     0.62400
F1329       F  0.65057867  0.06803454  0.41847564    -0.22800
F1330       F  0.62391575  0.06792792  0.45137663    -0.20100
F1331       F  0.57360650  0.03792256  0.42391863    -0.19800
F1332       F  0.63534346  0.86159026  0.45234770    -0.19800
F1333       F  0.56552067  0.82690147  0.43511610    -0.20100
F1334       F  0.56892142  0.84184334  0.47001581    -0.22800
C1335       C  0.54431640  0.64822744  0.45717441    -0.05600
C1336       C  0.54547738  0.60785580  0.45159779     0.00300
C1337       C  0.56775470  0.60649931  0.43261726    -0.08300
C1338       C  0.58683761  0.64566650  0.41922152    -0.05700
C1339       C  0.58416574  0.68606203  0.42406479     0.00300
C1340       C  0.56343243  0.68770636  0.44379804    -0.08200
C1341       C  0.56037217  0.72996621  0.45078877     0.62200
H1342       H  0.52613334  0.64756145  0.47171326     0.12900
H1343       H  0.60302917  0.64416339  0.40443424     0.12900
C1344       C  0.57023355  0.56328675  0.42633065     0.62400
F1345       F  0.54240055  0.72500192  0.47122610    -0.22800
F1346       F  0.53114186  0.73636738  0.43708105    -0.20100
F1347       F  0.60464183  0.76879147  0.45070208    -0.19800
F1348       F  0.52558594  0.52572934  0.42379412    -0.19800
F1349       F  0.59309511  0.55288921  0.44204537    -0.20100
F1350       F  0.59433694  0.56961291  0.40736620    -0.22800
C1351       C  0.75440860  0.78327271  0.23251205    -0.05600
C1352       C  0.72195327  0.74724227  0.24587180     0.00300
C1353       C  0.71414340  0.70117812  0.24279206    -0.08300
C1354       C  0.74378736  0.69451951  0.22873940    -0.05700
C1355       C  0.77930822  0.73175243  0.21725115     0.00300
C1356       C  0.78320135  0.77619377  0.21820403    -0.08200
C1357       C  0.81862054  0.81613687  0.20452060     0.62200
H1358       H  0.75957668  0.81810528  0.23431160     0.06300
H1359       H  0.74070091  0.66039872  0.22728258     0.12900
C1360       C  0.67609267  0.65913901  0.25455011     0.62400
F1361       F  0.86350414  0.82735092  0.21032131    -0.22800
F1362       F  0.81467713  0.85567541  0.20673450    -0.20100
F1363       F  0.81163162  0.80324951  0.18328042    -0.19800
F1364       F  0.63537688  0.66171924  0.25549524    -0.19800
F1365       F  0.69096624  0.65732164  0.27496310    -0.20100
F1366       F  0.66550238  0.61795722  0.24427587    -0.22800
C1367       C  0.40457409  0.05575343  0.34168328    -0.05600
C1368       C  0.36479026  0.05246836  0.33187810     0.00300
C1369       C  0.36962295  0.08979526  0.31883177    -0.08300
C1370       C  0.41465034  0.12905186  0.31601444    -0.05700
C1371       C  0.45484811  0.13197192  0.32551008     0.00300
C1372       C  0.44951221  0.09457227  0.33883130    -0.08200
C1373       C  0.49035069  0.09543468  0.35064831     0.62200
H1374       H  0.40023064  0.02661517  0.35133735     0.12900
H1375       H  0.41881694  0.15792799  0.30621790     0.12900
C1376       C  0.32752503  0.08899230  0.30840706     0.62400
F1377       F  0.47598614  0.05717126  0.36396758    -0.22800
F1378       F  0.51244832  0.13502698  0.36316035    -0.20100
F1379       F  0.52181557  0.09483836  0.33617355    -0.19800
F1380       F  0.29236485  0.07721880  0.32335203    -0.19800
F1381       F  0.31097946  0.05679609  0.29203266    -0.20100
F1382       F  0.33873516  0.13206029  0.29990600    -0.22800
C1383       C  0.97141596  0.57441089  0.33259001    -0.05600
C1384       C  0.97422107  0.61690686  0.33737508     0.00300
C1385       C  0.93597003  0.61789673  0.34722534    -0.08300
C1386       C  0.89426470  0.57553582  0.35069240    -0.05700
C1387       C  0.89028939  0.53255201  0.34507515     0.00300
C1388       C  0.93017088  0.53183414  0.33636317    -0.08200
C1389       C  0.92949296  0.48687795  0.33038512     0.62200
H1390       H  0.00196151  0.57505064  0.32569534     0.12900
H1391       H  0.86399230  0.57575160  0.35739767     0.12900
C1392       C  0.93906671  0.66376034  0.35354303     0.62400
F1393       F  0.97167769  0.49499375  0.32173164    -0.22800
F1394       F  0.89495201  0.46271584  0.31541368    -0.20100
F1395       F  0.92125135  0.45977062  0.34842614    -0.19800
F1396       F  0.94627957  0.69080448  0.33555522    -0.19800
F1397       F  0.97595390  0.68773595  0.36746572    -0.20100
F1398       F  0.89855087  0.65697769  0.36352952    -0.22800
C1399       C  0.13116370  0.68532803  0.43662022    -0.05600
C1400       C  0.09640941  0.69081038  0.42600765     0.00300
C1401       C  0.04856008  0.65937828  0.43122585    -0.08300
C1402       C  0.03740286  0.62009254  0.44411080    -0.05700
C1403       C  0.07216727  0.61234975  0.45286908     0.00300
C1404       C  0.11982137  0.64689396  0.45018524    -0.08200
C1405       C  0.15843844  0.64323063  0.46173563     0.62200
H1406       H  0.16761255  0.70999053  0.43331609     0.12900
H1407       H  0.00105991  0.59395993  0.44674391     0.12900
C1408       C  0.00868654  0.66550833  0.42280888     0.62400
F1409       F  0.20199678  0.68195386  0.45810879    -0.22800
F1410       F  0.16020733  0.60431967  0.45498935    -0.20100
F1411       F  0.14979916  0.63978310  0.48345310    -0.19800
F1412       F  0.99753937  0.64801582  0.40232463    -0.19800
F1413       F  0.02113854  0.71218618  0.42283828    -0.20100
F1414       F  0.96900080  0.64191646  0.43540203    -0.22800
C1415       C  0.37035024  0.94510244  0.41358727    -0.05600
C1416       C  0.33695390  0.89713828  0.41490180     0.00300
C1417       C  0.34295329  0.86952792  0.43083169    -0.08300
C1418       C  0.38267239  0.89108059  0.44418695    -0.05700
C1419       C  0.41561044  0.93868285  0.44247230     0.00300
C1420       C  0.40932591  0.96634675  0.42711749    -0.08200
C1421       C  0.44394105  0.01816528  0.42493125     0.62200
H1422       H  0.36585533  0.96649930  0.40179507     0.12900
H1423       H  0.38857881  0.87094132  0.45618917     0.12900
C1424       C  0.30829575  0.81786091  0.43403391     0.62400
F1425       F  0.48780269  0.02473755  0.42018999    -0.22800
F1426       F  0.44604196  0.04068287  0.44380425    -0.20100
F1427       F  0.43151903  0.03872258  0.40885792    -0.19800
F1428       F  0.30421447  0.79368918  0.41541941    -0.19800
F1429       F  0.26501310  0.81183664  0.43985801    -0.20100
F1430       F  0.32233223  0.79839339  0.44996890    -0.22800
C1431       C  0.00856467  0.79652093  0.23310604    -0.05600
C1432       C  0.00296540  0.76756059  0.25077083     0.00300
C1433       C  0.96089526  0.72329425  0.25222585    -0.08300
C1434       C  0.92681250  0.71058250  0.23615980    -0.05700
C1435       C  0.93234223  0.74002768  0.21900947     0.00300
C1436       C  0.97377564  0.78377301  0.21733903    -0.08200
C1437       C  0.98078966  0.81713007  0.19916685     0.62200
H1438       H  0.04047415  0.82982246  0.23174415     0.12900
H1439       H  0.89418476  0.67778766  0.23718911     0.12900
C1440       C  0.95051265  0.68934646  0.27062998     0.62400
F1441       F  0.02267716  0.85872371  0.20095097    -0.22800
F1442       F  0.94488741  0.82744892  0.19905376    -0.20100
F1443       F  0.98108322  0.79681170  0.17995478    -0.19800
F1444       F  0.95306458  0.71114500  0.28980634    -0.19800
F1445       F  0.98220239  0.67331394  0.27041903    -0.20100
F1446       F  0.90605185  0.65076423  0.26932732    -0.22800
C1447       C  0.91148108  0.35731270  0.10868038    -0.05600
C1448       C  0.94919850  0.36197029  0.09615959     0.00300
C1449       C  0.96341097  0.32783961  0.09865871    -0.08300
C1450       C  0.93383872  0.28619493  0.10974785    -0.05700
C1451       C  0.89329819  0.27951003  0.12024970     0.00300
C1452       C  0.88388547  0.31695230  0.12107434    -0.08200
C1453       C  0.84418508  0.31376276  0.13464049     0.62200
H1454       H  0.90147146  0.38393503  0.10758389     0.12900
H1455       H  0.94204944  0.25818507  0.11000456     0.12900
C1456       C  0.00845448  0.33337961  0.08927951     0.62400
F1457       F  0.84592683  0.35643805  0.13611593    -0.22800
F1458       F  0.84717930  0.29954995  0.15507381    -0.20100
F1459       F  0.80162011  0.28198397  0.12585736    -0.19800
F1460       F  0.04261817  0.37993455  0.08797045    -0.19800
F1461       F  0.99972752  0.31349399  0.06923000    -0.20100
F1462       F  0.02598165  0.31131587  0.10204233    -0.22800
C1463       C  0.70195914  0.12833737  0.11625915    -0.05600
C1464       C  0.74445522  0.12917027  0.11241586     0.00300
C1465       C  0.74738896  0.10327456  0.09515070    -0.08300
C1466       C  0.70922766  0.08115750  0.08104912    -0.05700
C1467       C  0.66743912  0.08282142  0.08374843     0.00300
C1468       C  0.66280450  0.10456188  0.10256860    -0.08200
C1469       C  0.61703350  0.10246077  0.10860064     0.62200
H1470       H  0.69997744  0.14725851  0.12995323     0.12900
H1471       H  0.71263244  0.06332259  0.06734198     0.12900
C1472       C  0.79093878  0.09915096  0.09165255     0.62400
F1473       F  0.61766071  0.11657439  0.12944702    -0.22800
F1474       F  0.58037722  0.05710052  0.10688006    -0.20100
F1475       F  0.60912432  0.13140808  0.09538944    -0.19800
F1476       F  0.78635785  0.07133036  0.07429405    -0.19800
F1477       F  0.79894819  0.07943734  0.10949564    -0.20100
F1478       F  0.82935509  0.14277242  0.08811639    -0.22800
C1479       C  0.79801534  0.00915808  0.21137346    -0.05600
C1480       C  0.79406207  0.04916725  0.21352382     0.00300
C1481       C  0.76796138  0.05256953  0.23063067    -0.08300
C1482       C  0.74969258  0.01703806  0.24611496    -0.05700
C1483       C  0.75657432  0.97814345  0.24509998     0.00300
C1484       C  0.77911294  0.97292471  0.22661416    -0.08200
C1485       C  0.78415301  0.93023669  0.22261939     0.62200
H1486       H  0.81858912  0.00794751  0.19813103     0.12900
H1487       H  0.73110371  0.02052634  0.25960217     0.12900
C1488       C  0.76110458  0.09461058  0.23291899     0.62400
F1489       F  0.80399834  0.93217628  0.20286698    -0.22800
F1490       F  0.74049678  0.89046333  0.22299306    -0.20100
F1491       F  0.81270206  0.92712058  0.23794427    -0.19800
F1492       F  0.74071159  0.09984327  0.21462785    -0.19800
F1493       F  0.80382835  0.13450346  0.23606326    -0.20100
F1494       F  0.73224212  0.08983860  0.24998431    -0.22800
C1495       C  0.39683810  0.31193861  0.08932248    -0.05600
C1496       C  0.44331743  0.34961515  0.09010228     0.00300
C1497       C  0.47250580  0.35067899  0.10720699    -0.08300
C1498       C  0.45524716  0.31317867  0.12163138    -0.05700
C1499       C  0.41037610  0.27487769  0.11970524     0.00300
C1500       C  0.38008963  0.27411134  0.10362665    -0.08200
C1501       C  0.33104849  0.23250966  0.10118824     0.62200
H1502       H  0.37371767  0.31148703  0.07703188     0.12900
H1503       H  0.47755639  0.31212642  0.13407149     0.12900
C1504       C  0.52147030  0.39079421  0.11068019     0.62400
F1505       F  0.30653360  0.23896387  0.08486719    -0.22800
F1506       F  0.30600684  0.22557921  0.11986601    -0.20100
F1507       F  0.33363711  0.19281321  0.09675081    -0.19800
F1508       F  0.51904027  0.43105287  0.11302278    -0.19800
F1509       F  0.54960786  0.39436152  0.09354370    -0.20100
F1510       F  0.54206093  0.38538110  0.12891465    -0.22800
C1511       C  0.39356243  0.10368723  0.10537891    -0.05600
C1512       C  0.42647663  0.13735837  0.11895609     0.00300
C1513       C  0.47467640  0.15281873  0.11608114    -0.08300
C1514       C  0.48858237  0.13596657  0.09857206    -0.05700
C1515       C  0.45592264  0.10508554  0.08368514     0.00300
C1516       C  0.40705993  0.08719119  0.08765706    -0.08200
C1517       C  0.36860649  0.05181742  0.07331619     0.62200
H1518       H  0.35701443  0.09312920  0.10791532     0.12900
H1519       H  0.52551989  0.14870010  0.09589433     0.12900
C1520       C  0.51131308  0.18832427  0.13100311     0.62400
F1521       F  0.32431308  0.03644644  0.08172818    -0.22800
F1522       F  0.37397824  0.01311746  0.07080600    -0.20100
F1523       F  0.37041601  0.07201848  0.05373802    -0.19800
F1524       F  0.49814594  0.17499589  0.15195259    -0.19800
F1525       F  0.51578834  0.23174765  0.12764191    -0.20100
F1526       F  0.55477316  0.19212196  0.12782799    -0.22800
C1527       C  0.30884688  0.03893728  0.22362391    -0.05600
C1528       C  0.27615407  0.04926466  0.21453579     0.00300
C1529       C  0.22771750  0.01609573  0.21612743    -0.08300
C1530       C  0.21352665  0.97642689  0.22915110    -0.05700
C1531       C  0.24627594  0.96847747  0.24009245     0.00300
C1532       C  0.29478114  0.99801792  0.23558426    -0.08200
C1533       C  0.33239202  0.98822175  0.24388311     0.62200
H1534       H  0.34582238  0.06403614  0.22190435     0.12900
H1535       H  0.17651591  0.95346754  0.23213555     0.12900
C1536       C  0.19076795  0.02373265  0.20529423     0.62400
F1537       F  0.37160189  0.00851901  0.23082763    -0.22800
F1538       F  0.31616668  0.94069459  0.24428604    -0.20100
F1539       F  0.34567651  0.00634606  0.26417736    -0.19800
F1540       F  0.20505384  0.04118494  0.18489647    -0.19800
F1541       F  0.18317146  0.05483327  0.21698409    -0.20100
F1542       F  0.14864164  0.98236551  0.20362296    -0.22800
C1543       C  0.38376685  0.29808295  0.36416741    -0.05600
C1544       C  0.36671141  0.30938295  0.34584537     0.00300
C1545       C  0.39837037  0.33489931  0.32906116    -0.08300
C1546       C  0.44581774  0.34788369  0.33122492    -0.05700
C1547       C  0.46231016  0.33522500  0.34913666     0.00300
C1548       C  0.43108027  0.30954032  0.36580408    -0.08200
C1549       C  0.44806141  0.29445307  0.38508980     0.62200
H1550       H  0.35957847  0.27967507  0.37705999     0.12900
H1551       H  0.47026414  0.36623579  0.31840198     0.12900
C1552       C  0.38253277  0.34843766  0.30882852     0.62400
F1553       F  0.41274451  0.27126797  0.39996640    -0.22800
F1554       F  0.48416914  0.33327547  0.39475319    -0.20100
F1555       F  0.46419920  0.26477084  0.37881508    -0.19800
F1556       F  0.35990566  0.37307092  0.31383747    -0.19800
F1557       F  0.35254986  0.30853347  0.29771990    -0.20100
F1558       F  0.41973285  0.37620483  0.29548840    -0.22800
C1559       C  0.95051148  0.34306320  0.30052533    -0.05600
C1560       C  0.97872622  0.36179426  0.31885632     0.00300
C1561       C  0.95971373  0.37423968  0.33641387    -0.08300
C1562       C  0.91234313  0.36225897  0.33581777    -0.05700
C1563       C  0.88322744  0.33968382  0.31830425     0.00300
C1564       C  0.90270070  0.33055906  0.30010027    -0.08200
C1565       C  0.87357023  0.30851253  0.28030694     0.62200
H1566       H  0.96595167  0.33753672  0.28646589     0.12900
H1567       H  0.89707418  0.36962500  0.34956031     0.12900
C1568       C  0.98844665  0.40021040  0.35582565     0.62400
F1569       F  0.89966508  0.30368412  0.26417181    -0.22800
F1570       F  0.85590722  0.33606480  0.27275323    -0.20100
F1571       F  0.83687063  0.26459574  0.28516192    -0.19800
F1572       F  0.03069224  0.43777947  0.34941796    -0.19800
F1573       F  0.99623664  0.37036201  0.36839420    -0.20100
F1574       F  0.96578767  0.41750904  0.36831580    -0.22800
C1575       C  0.04578431  0.40182909  0.41858160    -0.05600
C1576       C  0.09199405  0.40948557  0.41924754     0.00300
C1577       C  0.12242113  0.43878844  0.43569309    -0.08300
C1578       C  0.10694449  0.46306926  0.44888327    -0.05700
C1579       C  0.06232924  0.45811281  0.44670813     0.00300
C1580       C  0.03043141  0.42570133  0.43197184    -0.08200
C1581       C  0.98068205  0.41710475  0.43011734     0.62200
H1582       H  0.02173005  0.37781681  0.40696580     0.12900
H1583       H  0.13011802  0.48736178  0.46073828     0.12900
C1584       C  0.17100005  0.44531452  0.43956205     0.62400
F1585       F  0.98147160  0.45834016  0.42522218    -0.22800
F1586       F  0.95720080  0.39993422  0.44920096    -0.20100
F1587       F  0.95566286  0.38496897  0.41436794    -0.19800
F1588       F  0.20053731  0.46973870  0.42281275    -0.19800
F1589       F  0.16814455  0.40225180  0.44170406    -0.20100
F1590       F  0.19089823  0.47009608  0.45807911    -0.22800
C1591       C  0.32250321  0.45645776  0.43543226    -0.05600
C1592       C  0.32632523  0.42950225  0.41892805     0.00300
C1593       C  0.36506225  0.42093834  0.41930444    -0.08300
C1594       C  0.39766509  0.43978594  0.43598515    -0.05700
C1595       C  0.39440349  0.46780668  0.45174907     0.00300
C1596       C  0.35634555  0.47629527  0.45170033    -0.08200
C1597       C  0.35192173  0.50630011  0.46883332     0.62200
H1598       H  0.29300449  0.46247981  0.43541774     0.12900
H1599       H  0.42788293  0.43486819  0.43634586     0.12900
C1600       C  0.37383649  0.39338311  0.40218094     0.62400
F1601       F  0.31142819  0.50892885  0.46653064    -0.22800
F1602       F  0.38966977  0.55114822  0.46786317    -0.20100
F1603       F  0.35092161  0.48746986  0.48868411    -0.19800
F1604       F  0.37510591  0.41206956  0.38224750    -0.19800
F1605       F  0.33898246  0.34710872  0.40297572    -0.20100
F1606       F  0.41615830  0.39443952  0.40492446    -0.22800
C1607       C  0.93774578  0.20340564  0.23560680    -0.05600
C1608       C  0.94637596  0.18690359  0.21657701     0.00300
C1609       C  0.98891387  0.18646646  0.21400627    -0.08300
C1610       C  0.02331735  0.20653042  0.23005087    -0.05700
C1611       C  0.01470275  0.22334888  0.24918504     0.00300
C1612       C  0.96993384  0.21913232  0.25243805    -0.08200
C1613       C  0.95452047  0.22815643  0.27388863     0.62200
H1614       H  0.90388821  0.20104149  0.23764926     0.12900
H1615       H  0.05694316  0.20851766  0.22787608     0.12900
C1616       C  0.99684480  0.16313790  0.19488773     0.62400
F1617       F  0.90674604  0.21177192  0.27467117    -0.22800
F1618       F  0.97701171  0.27533602  0.27764711    -0.20100
F1619       F  0.96515531  0.20606187  0.28991223    -0.19800
F1620       F  0.99442887  0.18443360  0.17631446    -0.19800
F1621       F  0.96280167  0.11649355  0.19445078    -0.20100
F1622       F  0.04018817  0.16575909  0.19559776    -0.22800
C1623       C  0.29737992  0.25870449  0.24817124    -0.05600
C1624       C  0.25017797  0.24808819  0.24793912     0.00300
C1625       C  0.21953952  0.21579200  0.23235617    -0.08300
C1626       C  0.23675335  0.19321144  0.21904320    -0.05700
C1627       C  0.28274220  0.20158734  0.22067297     0.00300
C1628       C  0.31403281  0.23548819  0.23511485    -0.08200
C1629       C  0.36431589  0.24576495  0.23736083     0.62200
H1630       H  0.32120017  0.28433170  0.25936298     0.12900
H1631       H  0.21389142  0.16729875  0.20763926     0.12900
C1632       C  0.16870890  0.20365775  0.22981955     0.62400
F1633       F  0.36480032  0.20528623  0.24257104    -0.22800
F1634       F  0.38814368  0.27831258  0.25314758    -0.20100
F1635       F  0.38820994  0.26325716  0.21839972    -0.19800
F1636       F  0.16649370  0.24382837  0.22608804    -0.19800
F1637       F  0.14355797  0.18157090  0.24801815    -0.20100
F1638       F  0.14723819  0.17391080  0.21279597    -0.22800
loop_ 
_geom_bond_atom_site_label_1 
_geom_bond_atom_site_label_2 
_geom_bond_distance 
_geom_bond_site_symmetry_2 
_ccdc_geom_bond_type 
O1           Mg3   2.157       .  S
O1           Mg9   2.158       .  S
O1           C36   1.234       .  S
C2           O15   1.235       .  S
C2           O39   1.269       .  A
C2           H41   1.082       .  S
Mg3          O32   2.158       .  S
Mg3          O47   2.311       .  S
Mg3          O43   2.271       .  S
Mg3          O14   2.295       .  S
O4          Mg46   2.144       .  S
O4          Mg29   2.143       .  S
O4           C25   1.235       .  S
O5           C36   1.269       .  A
O5          Mg29   2.301       .  S
C6            O8   1.276       .  A
C6           O20   1.265       .  A
C6         C1592   1.502       .  S
O7           C35   1.271       .  A
O7           Mg9   2.308       .  S
O8          Mg40   2.312       .  S
Mg9          O15   2.144       .  S
Mg9          O23   2.274       .  S
Mg9          O11   2.280       .  S
C10          O48   1.266       .  A
C10          O16   1.273       .  A
C10        C1544   1.484       .  S
O11          C18   1.271       .  A
H12          C25   1.082       .  S
C13          O27   1.234       .  S
C13          O28   1.269       .  A
C13          H38   1.081       .  S
O14          C37   1.268       .  A
O15         Mg29   2.176       .  S
O16         Mg46   2.305       .  S
C17          O30   1.274       .  A
C17          O22   1.274       .  A
C17        C1624   1.504       .  S
C18          O45   1.273       .  A
C18        C1611   1.490       .  S
Mg19         O26   2.136       .  S
Mg19         O27   2.155       .  S
Mg19         O20   2.254       .  S
Mg19         O21   2.303       .  S
Mg19         O48   2.245       .  S
O21          C25   1.270       .  A
O22         Mg29   2.318       .  S
O23          C42   1.272       .  A
O24          C44   1.274       .  A
O24         Mg40   2.313       .  S
O26         Mg40   2.177       .  S
O26          C37   1.233       .  S
O27         Mg46   2.161       .  S
O28         Mg40   2.302       .  S
Mg29         O45   2.281       .  S
O30         Mg46   2.263       .  S
H31          C36   1.081       .  S
O32         Mg40   2.163       .  S
O32          C35   1.236       .  S
H33          C35   1.082       .  S
H34          C37   1.082       .  S
O39         Mg46   2.297       .  S
C42          O47   1.274       .  A
C42        C1560   1.505   1_455  S
O43          C44   1.275       .  A
C44        C1576   1.504       .  S
C49        C1528   1.492       .  S
C49          C50   1.402       .  A
C49          C54   1.420       .  A
C50          H69   1.084       .  S
C50          C51   1.399       .  A
C51        C1627   1.487       .  S
C51          C52   1.411       .  A
C52          C53   1.419       .  A
C52          C59   1.406       .  A
C53          C54   1.421       .  A
C53          C58   1.419       .  A
C54          C55   1.409       .  A
C55          H65   1.081       .  S
C55          C56   1.397       .  A
C56          H66   1.083       .  S
C56          C57   1.404       .  A
C57          C58   1.421       .  A
C57          C64   1.416       .  A
C58          C61   1.420       .  A
C59          H67   1.083       .  S
C59          C60   1.391       .  A
C60          H68   1.083       .  S
C60          C61   1.403       .  A
C61          C62   1.409       .  A
C62        C1499   1.474       .  S
C62          C63   1.388       .  A
C63          H70   1.087       .  S
C63          C64   1.390       .  A
C64        C1512   1.477       .  S
C71        C1608   1.483       .  S
C71          C72   1.392       .  A
C71          C76   1.417       .  A
C72          H91   1.087       .  S
C72          C73   1.391       .  A
C73        C1480   1.480       .  S
C73          C74   1.413       .  A
C74          C75   1.421       .  A
C74          C81   1.403       .  A
C75          C76   1.423       .  A
C75          C80   1.423       .  A
C76          C77   1.403       .  A
C77          H87   1.083       .  S
C77          C78   1.396       .  A
C78          H88   1.082       .  S
C78          C79   1.409       .  A
C79          C80   1.422       .  A
C79          C86   1.419       .  A
C80          C83   1.423       .  A
C81          H89   1.083       .  S
C81          C82   1.395       .  A
C82          H90   1.082       .  S
C82          C83   1.407       .  A
C83          C84   1.417       .  A
C84        C1464   1.499       .  S
C84          C85   1.405       .  A
C85          H92   1.084       .  S
C85          C86   1.407       .  A
C86        C1451   1.498       .  S
O93         Mg95   2.151       .  S
O93        Mg101   2.141       .  S
O93         C128   1.233       .  S
C94         O107   1.235       .  S
C94         O131   1.269       .  A
C94         H133   1.081       .  S
Mg95        O124   2.148       .  S
Mg95        O139   2.288       .  S
Mg95        O135   2.231       .  S
Mg95        O106   2.294       .  S
O96        Mg138   2.143       .  S
O96        Mg121   2.144       .  S
O96         C117   1.237       .  S
O97         C128   1.268       .  A
O97        Mg121   2.301       .  S
C98         O100   1.276       .  A
C98         O112   1.273       .  A
C98        C1432   1.506       .  S
O99         C127   1.273       .  A
O99        Mg101   2.311       .  S
O100       Mg132   2.286       .  S
Mg101       O107   2.151       .  S
Mg101       O115   2.283       .  S
Mg101       O103   2.303       .  S
C102        O140   1.270       .  A
C102        O108   1.265       .  A
C102       C1384   1.467   1_455  S
O103        C110   1.278       .  A
H104        C117   1.082       .  S
C105        O119   1.233       .  S
C105        O120   1.269       .  A
C105        H130   1.081       .  S
O106        C129   1.269       .  A
O107       Mg121   2.175       .  S
O108       Mg138   2.262       .  S
C109        O122   1.268       .  A
C109        O114   1.280       .  A
C109       C1400   1.505       .  S
C110        O137   1.272       .  A
C110       C1416   1.501       .  S
Mg111       O118   2.149       .  S
Mg111       O119   2.148       .  S
Mg111       O112   2.303       .  S
Mg111       O113   2.316       .  S
Mg111       O140   2.280       .  S
O113        C117   1.273       .  A
O114       Mg121   2.348       .  S
O115        C134   1.274   1_565  A
O116        C136   1.279       .  A
O116       Mg132   2.344       .  S
O118       Mg132   2.176       .  S
O118        C129   1.235       .  S
O119       Mg138   2.172       .  S
O120       Mg132   2.308       .  S
Mg121       O137   2.269       .  S
O122       Mg138   2.257       .  S
H123        C128   1.081       .  S
O124       Mg132   2.155       .  S
O124        C127   1.237       .  S
H125        C127   1.082       .  S
H126        C129   1.081       .  S
O131       Mg138   2.293       .  S
C134        O139   1.269   1_545  A
C134       C1368   1.486       .  S
O135        C136   1.266       .  A
C136       C1531   1.495       .  S
O141       Mg143   2.153       .  S
O141       Mg149   2.154       .  S
O141        C176   1.234       .  S
C142        O155   1.234       .  S
C142        O179   1.268       .  A
C142        H181   1.081       .  S
Mg143       O172   2.138       .  S
Mg143       O187   2.259       .  S
Mg143       O183   2.253       .  S
Mg143       O154   2.297       .  S
O144       Mg186   2.145       .  S
O144       Mg169   2.143       .  S
O144        C165   1.235       .  S
O145        C176   1.268       .  A
O145       Mg169   2.301       .  S
C146        O148   1.268       .  A
C146        O160   1.277       .  A
C146       C1483   1.503       .  S
O147        C175   1.271       .  A
O147       Mg149   2.306       .  S
O148       Mg180   2.260       .  S
Mg149       O155   2.144       .  S
Mg149       O163   2.275       .  S
Mg149       O151   2.261       .  S
C150        O188   1.267       .  A
C150        O156   1.269       .  A
C150       C1291   1.462   1_565  S
O151        C158   1.272       .  A
H152        C165   1.081       .  S
C153        O167   1.234       .  S
C153        O168   1.269       .  A
C153        H178   1.081       .  S
O154        C177   1.269       .  A
O155       Mg169   2.175       .  S
O156       Mg186   2.260       .  S
C157        O170   1.273       .  A
C157        O162   1.278       .  A
C157       C1320   1.513       .  S
C158        O185   1.274       .  A
C158       C1339   1.497       .  S
Mg159       O166   2.126       .  S
Mg159       O167   2.168       .  S
Mg159       O160   2.311       .  S
Mg159       O161   2.304       .  S
Mg159       O188   2.238       .  S
O161        C165   1.270       .  A
O162       Mg169   2.344       .  S
O163        C182   1.270       .  A
O164        C184   1.274       .  A
O164       Mg180   2.302       .  S
O166       Mg180   2.153       .  S
O166        C177   1.234       .  S
O167       Mg186   2.168       .  S
O168       Mg180   2.303       .  S
Mg169       O185   2.289       .  S
O170       Mg186   2.267       .  S
H171        C176   1.082       .  S
O172       Mg180   2.139       .  S
O172        C175   1.236       .  S
H173        C175   1.082       .  S
H174        C177   1.082       .  S
O179       Mg186   2.292       .  S
C182        O187   1.267       .  A
C182       C1304   1.476       .  S
O183        C184   1.267       .  A
C184       C1352   1.494       .  S
C189       C1355   1.485       .  S
C189        C190   1.395       .  A
C189        C194   1.409       .  A
C190        H209   1.085       .  S
C190        C191   1.400       .  A
C191       C1435   1.488       .  S
C191        C192   1.421       .  A
C192        C193   1.421       .  A
C192        C199   1.407       .  A
C193        C194   1.421       .  A
C193        C198   1.422       .  A
C194        C195   1.403       .  A
C195        H205   1.083       .  S
C195        C196   1.387       .  A
C196        H206   1.082       .  S
C196        C197   1.405       .  A
C197        C198   1.419       .  A
C197        C204   1.408       .  A
C198        C201   1.423       .  A
C199        H207   1.083       .  S
C199        C200   1.402       .  A
C200        H208   1.083       .  S
C200        C201   1.408       .  A
C201        C202   1.424       .  A
C202       C1256   1.493       .  S
C202        C203   1.400       .  A
C203        H210   1.085       .  S
C203        C204   1.395       .  A
C204       C1275   1.481       .  S
O211       Mg213   2.171   1_554  S
O211       Mg219   2.152       .  S
O211        C246   1.237       .  S
C212        O225   1.231   1_565  S
C212        O249   1.266       .  A
C212        H251   1.081       .  S
Mg213       O242   2.166   1_545  S
Mg213       O257   2.306   1_545  S
Mg213       O253   2.285   1_545  S
Mg213       O224   2.298       .  S
O214       Mg256   2.168       .  S
O214       Mg239   2.150       .  S
O214        C235   1.238   1_554  S
O215        C246   1.274       .  A
O215       Mg239   2.329       .  S
C216        O218   1.269       .  A
C216        O230   1.269       .  A
C216       C1240   1.490       .  S
O217        C245   1.271   1_554  A
O217       Mg219   2.299   1_565  S
O218       Mg250   2.270       .  S
Mg219       O225   2.164       .  S
Mg219       O233   2.256       .  S
Mg219       O221   2.279       .  S
C220        O258   1.268       .  A
C220        O226   1.273   1_556  A
C220       C1195   1.493       .  S
O221        C228   1.267       .  A
H222        C235   1.082   1_554  S
C223        O237   1.236       .  S
C223        O238   1.273       .  A
C223        H248   1.082   1_556  S
O224        C247   1.266       .  A
O225       Mg239   2.150       .  S
O226       Mg256   2.310       .  S
C227        O240   1.275       .  A
C227        O232   1.279       .  A
C227       C1467   1.513       .  S
C228        O255   1.273       .  A
C228       C1515   1.493       .  S
Mg229       O236   2.164   1_545  S
Mg229       O237   2.137   1_545  S
Mg229       O230   2.263   1_545  S
Mg229       O231   2.310       .  S
Mg229       O258   2.265       .  S
O231        C235   1.273       .  A
O232       Mg239   2.353       .  S
O233        C252   1.267   1_545  A
O234        C254   1.281       .  A
O234       Mg250   2.345       .  S
O236       Mg250   2.155       .  S
O236        C247   1.231   1_565  S
O237       Mg256   2.159   1_566  S
O238       Mg250   2.321       .  S
Mg239       O255   2.283       .  S
O240       Mg256   2.276       .  S
H241        C246   1.081   1_556  S
O242       Mg250   2.145       .  S
O242        C245   1.237       .  S
H243        C245   1.081       .  S
H244        C247   1.081       .  S
O249       Mg256   2.297   1_565  S
C252        O257   1.273   1_554  A
C252       C1211   1.477       .  S
O253        C254   1.273       .  A
C254       C1227   1.514       .  S
O259       Mg261   2.144   1_556  S
O259       Mg267   2.144       .  S
O259        C294   1.231       .  S
C260        O273   1.236       .  S
C260        O297   1.270       .  A
C260        H299   1.081       .  S
Mg261       O290   2.143       .  S
Mg261       O305   2.280       .  S
Mg261       O301   2.228       .  S
Mg261       O272   2.298       .  S
O262       Mg304   2.149       .  S
O262       Mg287   2.154       .  S
O262        C283   1.237       .  S
O263        C294   1.265       .  A
O263       Mg287   2.293       .  S
C264        O266   1.273       .  A
C264        O278   1.277       .  A
C264       C1496   1.507       .  S
O265        C293   1.273   1_556  A
O265       Mg267   2.313       .  S
O266       Mg298   2.283       .  S
Mg267       O273   2.138       .  S
Mg267       O281   2.261       .  S
Mg267       O269   2.299       .  S
C268        O306   1.268       .  A
C268        O274   1.267   1_554  A
C268       C1128   1.476       .  S
O269        C276   1.276       .  A
H270        C283   1.082       .  S
C271        O285   1.232       .  S
C271        O286   1.268       .  A
C271        H296   1.082       .  S
O272        C295   1.270       .  A
O273       Mg287   2.177       .  S
O274       Mg304   2.273       .  S
C275        O288   1.268       .  A
C275        O280   1.276       .  A
C275       C1176   1.501       .  S
C276        O303   1.276       .  A
C276       C1163   1.507       .  S
Mg277       O284   2.140       .  S
Mg277       O285   2.143       .  S
Mg277       O278   2.311       .  S
Mg277       O279   2.317       .  S
Mg277       O306   2.260       .  S
O279        C283   1.274   1_554  A
O280       Mg287   2.320       .  S
O281        C300   1.270       .  A
O282        C302   1.276       .  A
O282       Mg298   2.332       .  S
O284       Mg298   2.164       .  S
O284        C295   1.236       .  S
O285       Mg304   2.158   1_554  S
O286       Mg298   2.303       .  S
Mg287       O303   2.302       .  S
O288       Mg304   2.236       .  S
H289        C294   1.082       .  S
O290       Mg298   2.153       .  S
O290        C293   1.238       .  S
H291        C293   1.082       .  S
H292        C295   1.081       .  S
O297       Mg304   2.292       .  S
C300        O305   1.268   1_556  A
C300       C1144   1.478       .  S
O301        C302   1.268       .  A
C302       C1272   1.503       .  S
O307       Mg309   2.165   1_556  S
O307       Mg315   2.144   1_455  S
O307        C342   1.233       .  S
C308        O321   1.234       .  S
C308        O345   1.268       .  A
C308        H347   1.081       .  S
Mg309       O338   2.151   1_455  S
Mg309       O353   2.269   1_455  S
Mg309       O349   2.246   1_455  S
Mg309       O320   2.290       .  S
O310       Mg352   2.153   1_455  S
O310       Mg335   2.153       .  S
O310        C331   1.237       .  S
O311        C342   1.270       .  A
O311       Mg335   2.312       .  S
C312        O314   1.277       .  A
C312        O326   1.277       .  A
C312       C1259   1.505       .  S
O313        C341   1.274   1_556  A
O313       Mg315   2.314       .  S
O314       Mg346   2.306       .  S
Mg315       O321   2.147       .  S
Mg315       O329   2.270       .  S
Mg315       O317   2.304   1_655  S
C316        O354   1.269       .  A
C316        O322   1.268   1_554  A
C316       C1080   1.478       .  S
O317        C324   1.274       .  A
H318        C331   1.081       .  S
C319        O333   1.234       .  S
C319        O334   1.269       .  A
C319        H344   1.081       .  S
O320        C343   1.268       .  A
O321       Mg335   2.164   1_655  S
O322       Mg352   2.272   1_455  S
C323        O336   1.268       .  A
C323        O328   1.280       .  A
C323       C1096   1.507       .  S
C324        O351   1.276       .  A
C324       C1115   1.497       .  S
Mg325       O332   2.147       .  S
Mg325       O333   2.152   1_455  S
Mg325       O326   2.304   1_455  S
Mg325       O327   2.310       .  S
Mg325       O354   2.263       .  S
O327        C331   1.273   1_554  A
O328       Mg335   2.348       .  S
O329        C348   1.269   1_556  A
O330        C350   1.282       .  A
O330       Mg346   2.361       .  S
O332       Mg346   2.169   1_455  S
O332        C343   1.234       .  S
O333       Mg352   2.169   1_554  S
O334       Mg346   2.307       .  S
Mg335       O351   2.287       .  S
O336       Mg352   2.257   1_455  S
H337        C342   1.081   1_554  S
O338       Mg346   2.161       .  S
O338        C341   1.238       .  S
H339        C341   1.081       .  S
H340        C343   1.081       .  S
O345       Mg352   2.294       .  S
C348        O353   1.267       .  A
C348       C1064   1.468       .  S
O349        C350   1.268       .  A
C350       C1448   1.503       .  S
O355       Mg357   2.167       .  S
O355       Mg363   2.163       .  S
O355        C390   1.233       .  S
C356        O369   1.234       .  S
C356        O393   1.268       .  A
C356        H395   1.081       .  S
Mg357       O386   2.150       .  S
Mg357       O401   2.254       .  S
Mg357       O397   2.274       .  S
Mg357       O368   2.292       .  S
O358       Mg400   2.150       .  S
O358       Mg383   2.149       .  S
O358        C379   1.237       .  S
O359        C390   1.269       .  A
O359       Mg383   2.306       .  S
C360        O362   1.272       .  A
C360        O374   1.271       .  A
C360       C1048   1.491       .  S
O361        C389   1.270       .  A
O361       Mg363   2.299       .  S
O362       Mg394   2.250       .  S
Mg363       O369   2.135       .  S
Mg363       O377   2.241       .  S
Mg363       O365   2.300       .  S
C364        O402   1.268       .  A
C364        O370   1.265       .  A
C364        C968   1.474       .  S
O365        C372   1.276       .  A
H366        C379   1.081       .  S
C367        O381   1.233       .  S
C367        O382   1.268       .  A
C367        H392   1.081       .  S
O368        C391   1.267       .  A
O369       Mg383   2.155       .  S
O370       Mg400   2.269       .  S
C371        O384   1.268       .  A
C371        O376   1.277       .  A
C371       C1016   1.502       .  S
C372        O399   1.275       .  A
C372       C1000   1.508       .  S
Mg373       O380   2.137       .  S
Mg373       O381   2.139       .  S
Mg373       O374   2.293       .  S
Mg373       O375   2.313       .  S
Mg373       O402   2.248       .  S
O375        C379   1.273       .  A
O376       Mg383   2.336       .  S
O377        C396   1.267       .  A
O378        C398   1.274       .  A
O378       Mg394   2.320       .  S
O380       Mg394   2.160       .  S
O380        C391   1.233       .  S
O381       Mg400   2.149       .  S
O382       Mg394   2.304       .  S
Mg383       O399   2.297       .  S
O384       Mg400   2.226       .  S
H385        C390   1.082       .  S
O386       Mg394   2.132       .  S
O386        C389   1.236       .  S
H387        C389   1.082       .  S
H388        C391   1.081       .  S
O393       Mg400   2.290       .  S
C396        O401   1.268       .  A
C396        C984   1.463   1_545  S
O397        C398   1.273       .  A
C398       C1032   1.509       .  S
C403       C1179   1.484       .  S
C403        C404   1.395       .  A
C403        C408   1.410       .  A
C404        H423   1.086       .  S
C404        C405   1.400       .  A
C405       C1112   1.485       .  S
C405        C406   1.420       .  A
C406        C407   1.420       .  A
C406        C413   1.408       .  A
C407        C408   1.421       .  A
C407        C412   1.420       .  A
C408        C409   1.403       .  A
C409        H419   1.082       .  S
C409        C410   1.386       .  A
C410        H420   1.082       .  S
C410        C411   1.404       .  A
C411        C412   1.418       .  A
C411        C418   1.407       .  A
C412        C415   1.422       .  A
C413        H421   1.083       .  S
C413        C414   1.403       .  A
C414        H422   1.083       .  S
C414        C415   1.407       .  A
C415        C416   1.422       .  A
C416        C955   1.491       .  S
C416        C417   1.400       .  A
C417        H424   1.085       .  S
C417        C418   1.395       .  A
C418       C1019   1.479       .  S
C425       C1099   1.501       .  S
C425        C426   1.406       .  A
C425        C430   1.420       .  A
C426        H445   1.085       .  S
C426        C427   1.406       .  A
C427       C1224   1.501       .  S
C427        C428   1.422       .  A
C428        C429   1.423       .  A
C428        C435   1.409       .  A
C429        C430   1.423       .  A
C429        C434   1.426       .  A
C430        C431   1.408       .  A
C431        H441   1.082       .  S
C431        C432   1.395       .  A
C432        H442   1.083       .  S
C432        C433   1.403       .  A
C433        C434   1.423       .  A
C433        C440   1.416       .  A
C434        C437   1.424       .  A
C435        H443   1.082       .  S
C435        C436   1.398       .  A
C436        H444   1.083       .  S
C436        C437   1.404       .  A
C437        C438   1.419       .  A
C438       C1003   1.487       .  S
C438        C439   1.393       .  A
C439        H446   1.087       .  S
C439        C440   1.391       .  A
C440        C936   1.484       .  S
O447       Mg449   2.153       .  S
O447       Mg455   2.150       .  S
O447        C482   1.233       .  S
C448        O461   1.234       .  S
C448        O485   1.268       .  A
C448        H487   1.082       .  S
Mg449       O478   2.152       .  S
Mg449       O493   2.261       .  S
Mg449       O489   2.239       .  S
Mg449       O460   2.286       .  S
O450       Mg492   2.158       .  S
O450       Mg475   2.169       .  S
O450        C471   1.237       .  S
O451        C482   1.268       .  A
O451       Mg475   2.297       .  S
C452        O454   1.272       .  A
C452        O466   1.278       .  A
C452        C904   1.500       .  S
O453        C481   1.272       .  A
O453       Mg455   2.309       .  S
O454       Mg486   2.273       .  S
Mg455       O461   2.147       .  S
Mg455       O469   2.284       .  S
Mg455       O457   2.290       .  S
C456        O494   1.269   1_565  A
C456        O462   1.270   1_565  A
C456        C859   1.483       .  S
O457        C464   1.276       .  A
H458        C471   1.082       .  S
C459        O473   1.234       .  S
C459        O474   1.269       .  A
C459        H484   1.081       .  S
O460        C483   1.267       .  A
O461       Mg475   2.178       .  S
O462       Mg492   2.281       .  S
C463        O476   1.270       .  A
C463        O468   1.279       .  A
C463        C891   1.507       .  S
C464        O491   1.279       .  A
C464        C952   1.510       .  S
Mg465       O472   2.132       .  S
Mg465       O473   2.156       .  S
Mg465       O466   2.312       .  S
Mg465       O467   2.309       .  S
Mg465       O494   2.258       .  S
O467        C471   1.272       .  A
O468       Mg475   2.352       .  S
O469        C488   1.273       .  A
O470        C490   1.279       .  A
O470       Mg486   2.343       .  S
O472       Mg486   2.161       .  S
O472        C483   1.234       .  S
O473       Mg492   2.161       .  S
O474       Mg486   2.307       .  S
Mg475       O491   2.324       .  S
O476       Mg492   2.233       .  S
H477        C482   1.081       .  S
O478       Mg486   2.150       .  S
O478        C481   1.237       .  S
H479        C481   1.082       .  S
H480        C483   1.081       .  S
O485       Mg492   2.292       .  S
C488        O493   1.265       .  A
C488        C872   1.481   1_655  S
O489        C490   1.266       .  A
C490        C923   1.500       .  S
O495       Mg497   2.170       .  S
O495       Mg503   2.153       .  S
O495        C530   1.236       .  S
C496        O509   1.232       .  S
C496        O533   1.267       .  A
C496        H535   1.082       .  S
Mg497       O526   2.173       .  S
Mg497       O541   2.314       .  S
Mg497       O537   2.275       .  S
Mg497       O508   2.293       .  S
O498       Mg540   2.166       .  S
O498       Mg523   2.138       .  S
O498        C519   1.234       .  S
O499        C530   1.272       .  A
O499       Mg523   2.312       .  S
C500        O502   1.278       .  A
C500        O514   1.266       .  A
C500        C939   1.509       .  S
O501        C529   1.272       .  A
O501       Mg503   2.308       .  S
O502       Mg534   2.347       .  S
Mg503       O509   2.148       .  S
Mg503       O517   2.264       .  S
Mg503       O505   2.285       .  S
C504        O542   1.267       .  A
C504        O510   1.271       .  A
C504        C776   1.476   1_655  S
O505        C512   1.272       .  A
H506        C519   1.082       .  S
C507        O521   1.234       .  S
C507        O522   1.269       .  A
C507        H532   1.082       .  S
O508        C531   1.266       .  A
O509       Mg523   2.158       .  S
O510       Mg540   2.291       .  S
C511        O524   1.274       .  A
C511        O516   1.276       .  A
C511        C840   1.503       .  S
C512        O539   1.274       .  A
C512        C824   1.488       .  S
Mg513       O520   2.142       .  S
Mg513       O521   2.165       .  S
Mg513       O514   2.227       .  S
Mg513       O515   2.291       .  S
Mg513       O542   2.248       .  S
O515        C519   1.268       .  A
O516       Mg523   2.319       .  S
O517        C536   1.269       .  A
O518        C538   1.279       .  A
O518       Mg534   2.334       .  S
O520       Mg534   2.178       .  S
O520        C531   1.232       .  S
O521       Mg540   2.161       .  S
O522       Mg534   2.304       .  S
Mg523       O539   2.287       .  S
O524       Mg540   2.267       .  S
H525        C530   1.081       .  S
O526       Mg534   2.174       .  S
O526        C529   1.237       .  S
H527        C529   1.082       .  S
H528        C531   1.081       .  S
O533       Mg540   2.295       .  S
C536        O541   1.276       .  A
C536        C792   1.489       .  S
O537        C538   1.276       .  A
C538        C808   1.510       .  S
C543       C1243   1.477       .  S
C543        C544   1.392       .  A
C543        C548   1.411       .  A
C544        H563   1.086       .  S
C544        C545   1.393       .  A
C545       C1160   1.479       .  S
C545        C546   1.415       .  A
C546        C547   1.420       .  A
C546        C553   1.404       .  A
C547        C548   1.420       .  A
C547        C552   1.420       .  A
C548        C549   1.403       .  A
C549        H559   1.083       .  S
C549        C550   1.390       .  A
C550        H560   1.082       .  S
C550        C551   1.407       .  A
C551        C552   1.419       .  A
C551        C558   1.413       .  A
C552        C555   1.421       .  A
C553        H561   1.083       .  S
C553        C554   1.396       .  A
C554        H562   1.082       .  S
C554        C555   1.408       .  A
C555        C556   1.418       .  A
C556        C811   1.494       .  S
C556        C557   1.404       .  A
C557        H564   1.085       .  S
C557        C558   1.403       .  A
C558        C888   1.489       .  S
C565       C1403   1.500       .  S
C565        C566   1.403       .  A
C565        C570   1.419       .  A
C566        H585   1.085       .  S
C566        C567   1.403       .  A
C567       C1579   1.487       .  S
C567        C568   1.413       .  A
C568        C569   1.417       .  A
C568        C575   1.408       .  A
C569        C570   1.425       .  A
C569        C574   1.423   1_455  A
C570        C571   1.404       .  A
C571        H581   1.082       .  S
C571        C572   1.393       .  A
C572        H582   1.082   1_455  S
C572        C573   1.407   1_455  A
C573        C574   1.417       .  A
C573        C580   1.414       .  A
C574        C577   1.423       .  A
C575        H583   1.083       .  S
C575        C576   1.393   1_455  A
C576        H584   1.082       .  S
C576        C577   1.404       .  A
C577        C578   1.417       .  A
C578        C920   1.493       .  S
C578        C579   1.401       .  A
C579        H586   1.085       .  S
C579        C580   1.400       .  A
C580        C843   1.486       .  S
C587       C1595   1.482       .  S
C587        C588   1.391       .  A
C587        C592   1.415       .  A
C588        H607   1.086       .  S
C588        C589   1.391       .  A
C589       C1336   1.472       .  S
C589        C590   1.410       .  A
C590        C591   1.417       .  A
C590        C597   1.404       .  A
C591        C592   1.423       .  A
C591        C596   1.419       .  A
C592        C593   1.403       .  A
C593        H603   1.083       .  S
C593        C594   1.394       .  A
C594        H604   1.082       .  S
C594        C595   1.408       .  A
C595        C596   1.417       .  A
C595        C602   1.412       .  A
C596        C599   1.423       .  A
C597        H605   1.083       .  S
C597        C598   1.393       .  A
C598        H606   1.082       .  S
C598        C599   1.407       .  A
C599        C600   1.421       .  A
C600        C827   1.493       .  S
C600        C601   1.398       .  A
C601        H608   1.085       .  S
C601        C602   1.397       .  A
C602       C1051   1.478       .  S
C609       C1419   1.486       .  S
C609        C610   1.399       .  A
C609        C614   1.415       .  A
C610        H629   1.085       .  S
C610        C611   1.401       .  A
C611       C1323   1.493       .  S
C611        C612   1.418       .  A
C612        C613   1.424       .  A
C612        C619   1.404   1_565  A
C613        C614   1.419       .  A
C613        C618   1.424   1_565  A
C614        C615   1.408       .  A
C615        H625   1.083       .  S
C615        C616   1.394   1_565  A
C616        H626   1.083       .  S
C616        C617   1.404       .  A
C617        C618   1.424       .  A
C617        C624   1.418       .  A
C618        C621   1.419       .  A
C619        H627   1.083       .  S
C619        C620   1.395       .  A
C620        H628   1.083       .  S
C620        C621   1.408       .  A
C621        C622   1.416       .  A
C622        C907   1.488       .  S
C622        C623   1.400       .  A
C623        H630   1.085       .  S
C623        C624   1.400       .  A
C624       C1035   1.494       .  S
O631       Mg633   2.145   1_455  S
O631       Mg639   2.134   1_554  S
O631        C666   1.237       .  S
C632        O645   1.233       .  S
C632        O669   1.267       .  A
C632        H671   1.081       .  S
Mg633       O662   2.168   1_554  S
Mg633       O677   2.306   1_554  S
Mg633       O673   2.248       .  S
Mg633       O644   2.294       .  S
O634       Mg676   2.172   1_554  S
O634       Mg659   2.153       .  S
O634        C655   1.237       .  S
O635        C666   1.273       .  A
O635       Mg659   2.320   1_565  S
C636        O638   1.275       .  A
C636        O650   1.269   1_565  A
C636       C1192   1.473       .  S
O637        C665   1.273   1_455  A
O637       Mg639   2.311       .  S
O638       Mg670   2.301       .  S
Mg639       O645   2.139   1_565  S
Mg639       O653   2.236       .  S
Mg639       O641   2.282   1_556  S
C640        O678   1.266       .  A
C640        O646   1.273   1_655  A
C640       C1067   1.487       .  S
O641        C648   1.266   1_565  A
H642        C655   1.081       .  S
C643        O657   1.234       .  S
C643        O658   1.268       .  A
C643        H668   1.081       .  S
O644        C667   1.267       .  A
O645       Mg659   2.137   1_556  S
O646       Mg676   2.292   1_554  S
C647        O660   1.265       .  A
C647        O652   1.280   1_556  A
C647       C1131   1.492       .  S
C648        O675   1.275       .  A
C648       C1208   1.487       .  S
Mg649       O656   2.137   1_545  S
Mg649       O657   2.141   1_554  S
Mg649       O650   2.277   1_554  S
Mg649       O651   2.297       .  S
Mg649       O678   2.242       .  S
O651        C655   1.271   1_655  A
O652       Mg659   2.323       .  S
O653        C672   1.264       .  A
O654        C674   1.274       .  A
O654       Mg670   2.307       .  S
O656       Mg670   2.151   1_554  S
O656        C667   1.233       .  S
O657       Mg676   2.123   1_655  S
O658       Mg670   2.297   1_545  S
Mg659       O675   2.296       .  S
O660       Mg676   2.221       .  S
H661        C666   1.081       .  S
O662       Mg670   2.168       .  S
O662        C665   1.237       .  S
H663        C665   1.081       .  S
H664        C667   1.081       .  S
O669       Mg676   2.295       .  S
C672        O677   1.275   1_455  A
C672       C1083   1.483       .  S
O673        C674   1.272   1_554  A
C674       C1147   1.495       .  S
O679       Mg681   2.155       .  S
O679       Mg687   2.167       .  S
O679        C714   1.234       .  S
C680        O693   1.235       .  S
C680        O717   1.269       .  A
C680        H719   1.081       .  S
Mg681       O710   2.138       .  S
Mg681       O725   2.262       .  S
Mg681       O721   2.269       .  S
Mg681       O692   2.308       .  S
O682       Mg724   2.154       .  S
O682       Mg707   2.131       .  S
O682        C703   1.234       .  S
O683        C714   1.269       .  A
O683       Mg707   2.304       .  S
C684        O686   1.269       .  A
C684        O698   1.273       .  A
C684       C1288   1.463       .  S
O685        C713   1.269       .  A
O685       Mg687   2.303       .  S
O686       Mg718   2.225       .  S
Mg687       O693   2.160       .  S
Mg687       O701   2.297       .  S
Mg687       O689   2.313       .  S
C688        O726   1.276       .  A
C688        O694   1.267       .  A
C688       C1563   1.488       .  S
O689        C696   1.277       .  A
H690        C703   1.080       .  S
C691        O705   1.234       .  S
C691        O706   1.267       .  A
C691        H716   1.081       .  S
O692        C715   1.271       .  A
O693       Mg707   2.167       .  S
O694       Mg724   2.248       .  S
C695        O708   1.262       .  A
C695        O700   1.275       .  A
C695       C1387   1.488       .  S
C696        O723   1.268       .  A
C696       C1307   1.467       .  S
Mg697       O704   2.166       .  S
Mg697       O705   2.159       .  S
Mg697       O698   2.287       .  S
Mg697       O699   2.293       .  S
Mg697       O726   2.324       .  S
O699        C703   1.268       .  A
O700       Mg707   2.317       .  S
O701        C720   1.274       .  A
O702        C722   1.272       .  A
O702       Mg718   2.309       .  S
O704       Mg718   2.165       .  S
O704        C715   1.235       .  S
O705       Mg724   2.115       .  S
O706       Mg718   2.288       .  S
Mg707       O723   2.227       .  S
O708       Mg724   2.217       .  S
H709        C714   1.081       .  S
O710       Mg718   2.138       .  S
O710        C713   1.234       .  S
H711        C713   1.081       .  S
H712        C715   1.082       .  S
O717       Mg724   2.292       .  S
C720        O725   1.268       .  A
C720       C1547   1.471       .  S
O721        C722   1.270       .  A
C722       C1371   1.496       .  S
O727       Mg729   2.131       .  S
O727       Mg735   2.146       .  S
O727        C762   1.234       .  S
C728        O741   1.236       .  S
C728        O765   1.270       .  A
C728        H767   1.081       .  S
Mg729       O758   2.127       .  S
Mg729       O773   2.278       .  S
Mg729       O769   2.240       .  S
Mg729       O740   2.313       .  S
O730       Mg772   2.141       .  S
O730       Mg755   2.119       .  S
O730        C751   1.234       .  S
O731        C762   1.268       .  A
O731       Mg755   2.298       .  S
C732        O734   1.269       .  A
C732        O746   1.275       .  A
C732        C971   1.485       .  S
O733        C761   1.270       .  A
O733       Mg735   2.310       .  S
O734       Mg766   2.218       .  S
Mg735       O741   2.151       .  S
Mg735       O749   2.288       .  S
Mg735       O737   2.299       .  S
C736        O774   1.278       .  A
C736        O742   1.269       .  A
C736        C795   1.501       .  S
O737        C744   1.274       .  A
H738        C751   1.081       .  S
C739        O753   1.234       .  S
C739        O754   1.268       .  A
C739        H764   1.081       .  S
O740        C763   1.273       .  A
O741       Mg755   2.162       .  S
O742       Mg772   2.258       .  S
C743        O756   1.265       .  A
C743        O748   1.273       .  A
C743        C856   1.484       .  S
C744        O771   1.265       .  A
C744        C987   1.460       .  S
Mg745       O752   2.172       .  S
Mg745       O753   2.159       .  S
Mg745       O746   2.306       .  S
Mg745       O747   2.292       .  S
Mg745       O774   2.324       .  S
O747        C751   1.267       .  A
O748       Mg755   2.289       .  S
O749        C768   1.271       .  A
O750        C770   1.272       .  A
O750       Mg766   2.310       .  S
O752       Mg766   2.158       .  S
O752        C763   1.238       .  S
O753       Mg772   2.124       .  S
O754       Mg766   2.293       .  S
Mg755       O771   2.206       .  S
O756       Mg772   2.243       .  S
H757        C762   1.082       .  S
O758       Mg766   2.134       .  S
O758        C761   1.235       .  S
H759        C761   1.081       .  S
H760        C763   1.081       .  S
O765       Mg772   2.301       .  S
C768        O773   1.270       .  A
C768        C779   1.498       .  S
O769        C770   1.266       .  A
C770        C875   1.488       .  S
C775        H782   1.083       .  S
C775        C776   1.405       .  A
C775        C780   1.410       .  A
C776        C777   1.408       .  A
C777        C778   1.405       .  A
C777        C784   1.519   1_455  S
C778        H783   1.082       .  S
C778        C779   1.415       .  A
C779        C780   1.423       .  A
C780        C781   1.521       .  S
C781        F785   1.384       .  S
C781        F786   1.383       .  S
C781        F787   1.383       .  S
C784        F788   1.383       .  S
C784        F789   1.383       .  S
C784        F790   1.383   1_655  S
C791        H798   1.078       .  S
C791        C792   1.410       .  A
C791        C796   1.414       .  A
C792        C793   1.411       .  A
C793        C794   1.404       .  A
C793        C800   1.518       .  S
C794        H799   1.078       .  S
C794        C795   1.415       .  A
C795        C796   1.419       .  A
C796        C797   1.517       .  S
C797        F801   1.385       .  S
C797        F802   1.384       .  S
C797        F803   1.380       .  S
C800        F804   1.383       .  S
C800        F805   1.382       .  S
C800        F806   1.384       .  S
C807        H814   1.082       .  S
C807        C808   1.413       .  A
C807        C812   1.409       .  A
C808        C809   1.429       .  A
C809        C810   1.412       .  A
C809        C816   1.516       .  S
C810        H815   1.083       .  S
C810        C811   1.399       .  A
C811        C812   1.413       .  A
C812        C813   1.518       .  S
C813        F817   1.380       .  S
C813        F818   1.383       .  S
C813        F819   1.385       .  S
C816        F820   1.382       .  S
C816        F821   1.384       .  S
C816        F822   1.385       .  S
C823        H830   1.084       .  S
C823        C824   1.404       .  A
C823        C828   1.408       .  A
C824        C825   1.423       .  A
C825        C826   1.402       .  A
C825        C832   1.519       .  S
C826        H831   1.083       .  S
C826        C827   1.401       .  A
C827        C828   1.422       .  A
C828        C829   1.517       .  S
C829        F833   1.384       .  S
C829        F834   1.382       .  S
C829        F835   1.383       .  S
C832        F836   1.384       .  S
C832        F837   1.379       .  S
C832        F838   1.385       .  S
C839        H846   1.082       .  S
C839        C840   1.414       .  A
C839        C844   1.409       .  A
C840        C841   1.428       .  A
C841        C842   1.408       .  A
C841        C848   1.519       .  S
C842        H847   1.084       .  S
C842        C843   1.398       .  A
C843        C844   1.411       .  A
C844        C845   1.520   1_655  S
C845        F849   1.384       .  S
C845        F850   1.383       .  S
C845        F851   1.383       .  S
C848        F852   1.383       .  S
C848        F853   1.383       .  S
C848        F854   1.385       .  S
C855        H862   1.083       .  S
C855        C856   1.405       .  A
C855        C860   1.402       .  A
C856        C857   1.419       .  A
C857        C858   1.410       .  A
C857        C864   1.519       .  S
C858        H863   1.083       .  S
C858        C859   1.406       .  A
C859        C860   1.418       .  A
C860        C861   1.520       .  S
C861        F865   1.385       .  S
C861        F866   1.380       .  S
C861        F867   1.384   1_565  S
C864        F868   1.382       .  S
C864        F869   1.383       .  S
C864        F870   1.384       .  S
C871        H878   1.083       .  S
C871        C872   1.402       .  A
C871        C876   1.406       .  A
C872        C873   1.420       .  A
C873        C874   1.409       .  A
C873        C880   1.522   1_455  S
C874        H879   1.083       .  S
C874        C875   1.407       .  A
C875        C876   1.423       .  A
C876        C877   1.522       .  S
C877        F881   1.384       .  S
C877        F882   1.383       .  S
C877        F883   1.383       .  S
C880        F884   1.384       .  S
C880        F885   1.383       .  S
C880        F886   1.381       .  S
C887        H894   1.083       .  S
C887        C888   1.400       .  A
C887        C892   1.411   1_565  A
C888        C889   1.412       .  A
C889        C890   1.408       .  A
C889        C896   1.521       .  S
C890        H895   1.082       .  S
C890        C891   1.415   1_565  A
C891        C892   1.427       .  A
C892        C893   1.516       .  S
C893        F897   1.385       .  S
C893        F898   1.382       .  S
C893        F899   1.383       .  S
C896        F900   1.384       .  S
C896        F901   1.381       .  S
C896        F902   1.380       .  S
C903        H910   1.080       .  S
C903        C904   1.411       .  A
C903        C908   1.405       .  A
C904        C905   1.427       .  A
C905        C906   1.412       .  A
C905        C912   1.521       .  S
C906        H911   1.083       .  S
C906        C907   1.402       .  A
C907        C908   1.412       .  A
C908        C909   1.521   1_545  S
C909        F913   1.380       .  S
C909        F914   1.382       .  S
C909        F915   1.381       .  S
C912        F916   1.383       .  S
C912        F917   1.384       .  S
C912        F918   1.385       .  S
C919        H926   1.084   1_655  S
C919        C920   1.400       .  A
C919        C924   1.409       .  A
C920        C921   1.415       .  A
C921        C922   1.411       .  A
C921        C928   1.517       .  S
C922        H927   1.083       .  S
C922        C923   1.409       .  A
C923        C924   1.427       .  A
C924        C925   1.520       .  S
C925        F929   1.385   1_655  S
C925        F930   1.384       .  S
C925        F931   1.382   1_655  S
C928        F932   1.384       .  S
C928        F933   1.382       .  S
C928        F934   1.385       .  S
C935        H942   1.083       .  S
C935        C936   1.403       .  A
C935        C940   1.414   1_455  A
C936        C937   1.408       .  A
C937        C938   1.402       .  A
C937        C944   1.521       .  S
C938        H943   1.081       .  S
C938        C939   1.418   1_455  A
C939        C940   1.424       .  A
C940        C941   1.513       .  S
C941        F945   1.385       .  S
C941        F946   1.382       .  S
C941        F947   1.383       .  S
C944        F948   1.382       .  S
C944        F949   1.380       .  S
C944        F950   1.384       .  S
C951        H958   1.084       .  S
C951        C952   1.413   1_455  A
C951        C956   1.404       .  A
C952        C953   1.427       .  A
C953        C954   1.416   1_655  A
C953        C960   1.516       .  S
C954        H959   1.083       .  S
C954        C955   1.403       .  A
C955        C956   1.413       .  A
C956        C957   1.518       .  S
C957        F961   1.382       .  S
C957        F962   1.383       .  S
C957        F963   1.385       .  S
C960        F964   1.383       .  S
C960        F965   1.381       .  S
C960        F966   1.385       .  S
C967        H974   1.080       .  S
C967        C968   1.401       .  A
C967        C972   1.401       .  A
C968        C969   1.415       .  A
C969        C970   1.404       .  A
C969        C976   1.520       .  S
C970        H975   1.083       .  S
C970        C971   1.410       .  A
C971        C972   1.422       .  A
C972        C973   1.521       .  S
C973        F977   1.385       .  S
C973        F978   1.383       .  S
C973        F979   1.384       .  S
C976        F980   1.383       .  S
C976        F981   1.383       .  S
C976        F982   1.385       .  S
C983        H990   1.084       .  S
C983        C984   1.406       .  A
C983        C988   1.400       .  A
C984        C985   1.410       .  A
C985        C986   1.401       .  A
C985        C992   1.518       .  S
C986        H991   1.084       .  S
C986        C987   1.404       .  A
C987        C988   1.409       .  A
C988        C989   1.519       .  S
C989        F993   1.384       .  S
C989        F994   1.382       .  S
C989        F995   1.384       .  S
C992        F996   1.382   1_565  S
C992        F997   1.384   1_565  S
C992        F998   1.384       .  S
C999       H1006   1.082       .  S
C999       C1000   1.414   1_565  A
C999       C1004   1.408       .  A
C1000      C1001   1.426       .  A
C1001      C1002   1.409   1_545  A
C1001      C1008   1.513       .  S
C1002      H1007   1.083       .  S
C1002      C1003   1.400       .  A
C1003      C1004   1.413       .  A
C1004      C1005   1.519       .  S
C1005      F1009   1.381       .  S
C1005      F1010   1.381       .  S
C1005      F1011   1.385       .  S
C1008      F1012   1.384       .  S
C1008      F1013   1.377       .  S
C1008      F1014   1.385       .  S
C1015      H1022   1.082       .  S
C1015      C1016   1.415       .  A
C1015      C1020   1.406       .  A
C1016      C1017   1.426       .  A
C1017      C1018   1.405       .  A
C1017      C1024   1.511       .  S
C1018      H1023   1.084       .  S
C1018      C1019   1.395       .  A
C1019      C1020   1.409       .  A
C1020      C1021   1.518       .  S
C1021      F1025   1.384       .  S
C1021      F1026   1.383       .  S
C1021      F1027   1.383       .  S
C1024      F1028   1.384       .  S
C1024      F1029   1.383       .  S
C1024      F1030   1.385       .  S
C1031      H1038   1.082       .  S
C1031      C1032   1.413       .  A
C1031      C1036   1.410       .  A
C1032      C1033   1.430       .  A
C1033      C1034   1.413       .  A
C1033      C1040   1.520       .  S
C1034      H1039   1.083       .  S
C1034      C1035   1.401       .  A
C1035      C1036   1.413       .  A
C1036      C1037   1.518   1_545  S
C1037      F1041   1.384       .  S
C1037      F1042   1.380       .  S
C1037      F1043   1.382       .  S
C1040      F1044   1.383       .  S
C1040      F1045   1.384       .  S
C1040      F1046   1.385       .  S
C1047      H1054   1.084       .  S
C1047      C1048   1.408       .  A
C1047      C1052   1.399       .  A
C1048      C1049   1.429       .  A
C1049      C1050   1.406       .  A
C1049      C1056   1.520       .  S
C1050      H1055   1.084       .  S
C1050      C1051   1.399       .  A
C1051      C1052   1.412       .  A
C1052      C1053   1.517       .  S
C1053      F1057   1.384       .  S
C1053      F1058   1.382       .  S
C1053      F1059   1.382       .  S
C1056      F1060   1.380       .  S
C1056      F1061   1.384       .  S
C1056      F1062   1.385       .  S
C1063      H1070   1.083       .  S
C1063      C1064   1.395   1_556  A
C1063      C1068   1.408       .  A
C1064      C1065   1.414   1_655  A
C1065      C1066   1.404       .  A
C1065      C1072   1.521       .  S
C1066      H1071   1.083       .  S
C1066      C1067   1.405   1_455  A
C1067      C1068   1.428   1_554  A
C1068      C1069   1.522       .  S
C1069      F1073   1.385       .  S
C1069      F1074   1.383   1_556  S
C1069      F1075   1.384       .  S
C1072      F1076   1.382       .  S
C1072      F1077   1.384   1_554  S
C1072      F1078   1.385       .  S
C1079      H1086   1.083       .  S
C1079      C1080   1.405   1_556  A
C1079      C1084   1.409       .  A
C1080      C1081   1.418   1_455  A
C1081      C1082   1.402       .  A
C1081      C1088   1.521       .  S
C1082      H1087   1.083       .  S
C1082      C1083   1.404   1_654  A
C1083      C1084   1.420       .  A
C1084      C1085   1.519       .  S
C1085      F1089   1.385       .  S
C1085      F1090   1.382       .  S
C1085      F1091   1.383       .  S
C1088      F1092   1.380       .  S
C1088      F1093   1.384       .  S
C1088      F1094   1.385       .  S
C1095      H1102   1.083       .  S
C1095      C1096   1.410       .  A
C1095      C1100   1.412       .  A
C1096      C1097   1.428       .  A
C1097      C1098   1.413       .  A
C1097      C1104   1.519       .  S
C1098      H1103   1.084       .  S
C1098      C1099   1.402       .  A
C1099      C1100   1.416       .  A
C1100      C1101   1.516       .  S
C1101      F1105   1.380       .  S
C1101      F1106   1.384       .  S
C1101      F1107   1.385       .  S
C1104      F1108   1.383       .  S
C1104      F1109   1.384   1_455  S
C1104      F1110   1.385   1_455  S
C1111      H1118   1.083       .  S
C1111      C1112   1.397       .  A
C1111      C1116   1.408       .  A
C1112      C1113   1.415       .  A
C1113      C1114   1.409       .  A
C1113      C1120   1.519       .  S
C1114      H1119   1.082       .  S
C1114      C1115   1.408       .  A
C1115      C1116   1.430       .  A
C1116      C1117   1.521       .  S
C1117      F1121   1.385       .  S
C1117      F1122   1.384   1_455  S
C1117      F1123   1.383       .  S
C1120      F1124   1.383       .  S
C1120      F1125   1.382       .  S
C1120      F1126   1.384       .  S
C1127      H1134   1.083       .  S
C1127      C1128   1.400   1_556  A
C1127      C1132   1.408       .  A
C1128      C1129   1.416       .  A
C1129      C1130   1.401       .  A
C1129      C1136   1.519       .  S
C1130      H1135   1.082       .  S
C1130      C1131   1.406   1_554  A
C1131      C1132   1.429       .  A
C1132      C1133   1.523       .  S
C1133      F1137   1.385       .  S
C1133      F1138   1.383       .  S
C1133      F1139   1.384       .  S
C1136      F1140   1.378       .  S
C1136      F1141   1.384       .  S
C1136      F1142   1.385       .  S
C1143      H1150   1.083       .  S
C1143      C1144   1.401       .  A
C1143      C1148   1.406       .  A
C1144      C1145   1.414   1_556  A
C1145      C1146   1.406       .  A
C1145      C1152   1.519       .  S
C1146      H1151   1.082       .  S
C1146      C1147   1.411   1_554  A
C1147      C1148   1.427       .  A
C1148      C1149   1.523       .  S
C1149      F1153   1.384       .  S
C1149      F1154   1.383       .  S
C1149      F1155   1.383       .  S
C1152      F1156   1.383   1_554  S
C1152      F1157   1.382       .  S
C1152      F1158   1.385       .  S
C1159      H1166   1.083       .  S
C1159      C1160   1.397       .  A
C1159      C1164   1.409       .  A
C1160      C1161   1.412       .  A
C1161      C1162   1.404       .  A
C1161      C1168   1.518       .  S
C1162      H1167   1.084       .  S
C1162      C1163   1.413       .  A
C1163      C1164   1.428       .  A
C1164      C1165   1.512       .  S
C1165      F1169   1.385       .  S
C1165      F1170   1.383       .  S
C1165      F1171   1.381       .  S
C1168      F1172   1.382       .  S
C1168      F1173   1.384       .  S
C1168      F1174   1.381       .  S
C1175      H1182   1.082       .  S
C1175      C1176   1.414       .  A
C1175      C1180   1.407       .  A
C1176      C1177   1.424       .  A
C1177      C1178   1.406       .  A
C1177      C1184   1.511       .  S
C1178      H1183   1.084       .  S
C1178      C1179   1.397       .  A
C1179      C1180   1.411       .  A
C1180      C1181   1.519       .  S
C1181      F1185   1.385       .  S
C1181      F1186   1.383       .  S
C1181      F1187   1.382       .  S
C1184      F1188   1.384       .  S
C1184      F1189   1.380       .  S
C1184      F1190   1.385       .  S
C1191      H1198   1.084   1_556  S
C1191      C1192   1.397       .  A
C1191      C1196   1.404   1_556  A
C1192      C1193   1.411   1_565  A
C1193      C1194   1.413       .  A
C1193      C1200   1.514       .  S
C1194      H1199   1.083       .  S
C1194      C1195   1.411       .  A
C1195      C1196   1.425   1_546  A
C1196      C1197   1.521       .  S
C1197      F1201   1.385       .  S
C1197      F1202   1.383       .  S
C1197      F1203   1.381   1_565  S
C1200      F1204   1.383   1_545  S
C1200      F1205   1.383       .  S
C1200      F1206   1.384       .  S
C1207      H1214   1.083       .  S
C1207      C1208   1.402       .  A
C1207      C1212   1.404       .  A
C1208      C1209   1.425   1_545  A
C1209      C1210   1.413       .  A
C1209      C1216   1.519       .  S
C1210      H1215   1.083       .  S
C1210      C1211   1.400       .  A
C1211      C1212   1.417   1_565  A
C1212      C1213   1.520   1_554  S
C1213      F1217   1.385       .  S
C1213      F1218   1.382       .  S
C1213      F1219   1.383   1_556  S
C1216      F1220   1.382       .  S
C1216      F1221   1.383       .  S
C1216      F1222   1.385       .  S
C1223      H1230   1.083       .  S
C1223      C1224   1.402       .  A
C1223      C1228   1.414       .  A
C1224      C1225   1.418       .  A
C1225      C1226   1.412       .  A
C1225      C1232   1.519       .  S
C1226      H1231   1.084       .  S
C1226      C1227   1.413       .  A
C1227      C1228   1.430       .  A
C1228      C1229   1.520       .  S
C1229      F1233   1.385       .  S
C1229      F1234   1.383   1_565  S
C1229      F1235   1.383       .  S
C1232      F1236   1.382       .  S
C1232      F1237   1.383       .  S
C1232      F1238   1.384       .  S
C1239      H1246   1.082       .  S
C1239      C1240   1.413       .  A
C1239      C1244   1.401       .  A
C1240      C1241   1.422       .  A
C1241      C1242   1.407       .  A
C1241      C1248   1.520       .  S
C1242      H1247   1.083       .  S
C1242      C1243   1.402       .  A
C1243      C1244   1.410       .  A
C1244      C1245   1.522       .  S
C1245      F1249   1.384       .  S
C1245      F1250   1.381       .  S
C1245      F1251   1.383       .  S
C1248      F1252   1.383       .  S
C1248      F1253   1.384       .  S
C1248      F1254   1.384       .  S
C1255      H1262   1.083       .  S
C1255      C1256   1.405       .  A
C1255      C1260   1.413       .  A
C1256      C1257   1.413       .  A
C1257      C1258   1.410       .  A
C1257      C1264   1.521       .  S
C1258      H1263   1.081       .  S
C1258      C1259   1.414       .  A
C1259      C1260   1.424       .  A
C1260      C1261   1.520       .  S
C1261      F1265   1.385       .  S
C1261      F1266   1.383       .  S
C1261      F1267   1.384       .  S
C1264      F1268   1.384       .  S
C1264      F1269   1.380       .  S
C1264      F1270   1.383       .  S
C1271      H1278   1.082       .  S
C1271      C1272   1.413       .  A
C1271      C1276   1.405       .  A
C1272      C1273   1.426       .  A
C1273      C1274   1.406       .  A
C1273      C1280   1.509       .  S
C1274      H1279   1.083       .  S
C1274      C1275   1.396       .  A
C1275      C1276   1.409       .  A
C1276      C1277   1.517       .  S
C1277      F1281   1.382       .  S
C1277      F1282   1.383       .  S
C1277      F1283   1.384       .  S
C1280      F1284   1.381       .  S
C1280      F1285   1.383       .  S
C1280      F1286   1.385       .  S
C1287      H1294   1.084       .  S
C1287      C1288   1.405       .  A
C1287      C1292   1.401       .  A
C1288      C1289   1.412       .  A
C1289      C1290   1.400       .  A
C1289      C1296   1.519       .  S
C1290      H1295   1.084       .  S
C1290      C1291   1.404       .  A
C1291      C1292   1.410       .  A
C1292      C1293   1.518       .  S
C1293      F1297   1.385       .  S
C1293      F1298   1.383   1_545  S
C1293      F1299   1.383   1_545  S
C1296      F1300   1.383       .  S
C1296      F1301   1.383       .  S
C1296      F1302   1.385       .  S
C1303      H1310   1.083       .  S
C1303      C1304   1.409       .  A
C1303      C1308   1.403       .  A
C1304      C1305   1.413       .  A
C1305      C1306   1.405       .  A
C1305      C1312   1.517       .  S
C1306      H1311   1.084       .  S
C1306      C1307   1.405       .  A
C1307      C1308   1.408       .  A
C1308      C1309   1.518       .  S
C1309      F1313   1.384       .  S
C1309      F1314   1.382       .  S
C1309      F1315   1.383       .  S
C1312      F1316   1.383       .  S
C1312      F1317   1.383       .  S
C1312      F1318   1.385       .  S
C1319      H1326   1.082   1_565  S
C1319      C1320   1.413       .  A
C1319      C1324   1.410       .  A
C1320      C1321   1.428       .  A
C1321      C1322   1.412       .  A
C1321      C1328   1.512       .  S
C1322      H1327   1.083       .  S
C1322      C1323   1.399       .  A
C1323      C1324   1.413       .  A
C1324      C1325   1.516   1_565  S
C1325      F1329   1.385       .  S
C1325      F1330   1.382       .  S
C1325      F1331   1.379       .  S
C1328      F1332   1.383       .  S
C1328      F1333   1.380       .  S
C1328      F1334   1.385       .  S
C1335      H1342   1.083       .  S
C1335      C1336   1.397       .  A
C1335      C1340   1.406       .  A
C1336      C1337   1.409       .  A
C1337      C1338   1.400       .  A
C1337      C1344   1.521       .  S
C1338      H1343   1.082       .  S
C1338      C1339   1.413       .  A
C1339      C1340   1.426       .  A
C1340      C1341   1.513       .  S
C1341      F1345   1.385       .  S
C1341      F1346   1.382       .  S
C1341      F1347   1.382       .  S
C1344      F1348   1.383       .  S
C1344      F1349   1.382       .  S
C1344      F1350   1.385       .  S
C1351      H1358   1.082       .  S
C1351      C1352   1.410       .  A
C1351      C1356   1.405       .  A
C1352      C1353   1.424       .  A
C1353      C1354   1.409       .  A
C1353      C1360   1.518       .  S
C1354      H1359   1.084       .  S
C1354      C1355   1.401       .  A
C1355      C1356   1.409       .  A
C1356      C1357   1.516       .  S
C1357      F1361   1.381       .  S
C1357      F1362   1.381       .  S
C1357      F1363   1.383       .  S
C1360      F1364   1.384       .  S
C1360      F1365   1.382       .  S
C1360      F1366   1.385       .  S
C1367      H1374   1.083       .  S
C1367      C1368   1.401       .  A
C1367      C1372   1.406       .  A
C1368      C1369   1.419       .  A
C1369      C1370   1.413       .  A
C1369      C1376   1.520       .  S
C1370      H1375   1.083       .  S
C1370      C1371   1.409       .  A
C1371      C1372   1.426       .  A
C1372      C1373   1.522       .  S
C1373      F1377   1.385       .  S
C1373      F1378   1.383       .  S
C1373      F1379   1.382       .  S
C1376      F1380   1.384       .  S
C1376      F1381   1.382       .  S
C1376      F1382   1.385       .  S
C1383      H1390   1.083   1_655  S
C1383      C1384   1.393       .  A
C1383      C1388   1.406       .  A
C1384      C1385   1.415       .  A
C1385      C1386   1.406       .  A
C1385      C1392   1.519       .  S
C1386      H1391   1.083       .  S
C1386      C1387   1.404       .  A
C1387      C1388   1.431       .  A
C1388      C1389   1.521       .  S
C1389      F1393   1.385       .  S
C1389      F1394   1.383       .  S
C1389      F1395   1.381       .  S
C1392      F1396   1.382       .  S
C1392      F1397   1.383       .  S
C1392      F1398   1.385       .  S
C1399      H1406   1.082       .  S
C1399      C1400   1.410       .  A
C1399      C1404   1.413       .  A
C1400      C1401   1.427       .  A
C1401      C1402   1.411       .  A
C1401      C1408   1.517       .  S
C1402      H1407   1.084       .  S
C1402      C1403   1.402       .  A
C1403      C1404   1.417       .  A
C1404      C1405   1.518       .  S
C1405      F1409   1.385       .  S
C1405      F1410   1.381       .  S
C1405      F1411   1.383       .  S
C1408      F1412   1.382   1_455  S
C1408      F1413   1.384       .  S
C1408      F1414   1.385   1_455  S
C1415      H1422   1.081       .  S
C1415      C1416   1.412       .  A
C1415      C1420   1.402       .  A
C1416      C1417   1.429       .  A
C1417      C1418   1.413       .  A
C1417      C1424   1.522       .  S
C1418      H1423   1.083       .  S
C1418      C1419   1.401       .  A
C1419      C1420   1.410       .  A
C1420      C1421   1.519   1_565  S
C1421      F1425   1.379       .  S
C1421      F1426   1.382       .  S
C1421      F1427   1.384       .  S
C1424      F1428   1.383       .  S
C1424      F1429   1.384       .  S
C1424      F1430   1.385       .  S
C1431      H1438   1.082       .  S
C1431      C1432   1.413       .  A
C1431      C1436   1.410   1_455  A
C1432      C1433   1.432   1_455  A
C1433      C1434   1.409       .  A
C1433      C1440   1.523       .  S
C1434      H1439   1.083       .  S
C1434      C1435   1.398       .  A
C1435      C1436   1.414       .  A
C1436      C1437   1.519       .  S
C1437      F1441   1.385   1_655  S
C1437      F1442   1.381       .  S
C1437      F1443   1.382       .  S
C1440      F1444   1.383       .  S
C1440      F1445   1.383       .  S
C1440      F1446   1.385       .  S
C1447      H1454   1.083       .  S
C1447      C1448   1.409       .  A
C1447      C1452   1.413       .  A
C1448      C1449   1.426       .  A
C1449      C1450   1.409       .  A
C1449      C1456   1.517   1_655  S
C1450      H1455   1.084       .  S
C1450      C1451   1.401       .  A
C1451      C1452   1.416       .  A
C1452      C1453   1.516       .  S
C1453      F1457   1.384       .  S
C1453      F1458   1.384       .  S
C1453      F1459   1.382       .  S
C1456      F1460   1.384       .  S
C1456      F1461   1.382   1_455  S
C1456      F1462   1.385       .  S
C1463      H1470   1.083       .  S
C1463      C1464   1.404       .  A
C1463      C1468   1.419       .  A
C1464      C1465   1.413       .  A
C1465      C1466   1.409       .  A
C1465      C1472   1.520       .  S
C1466      H1471   1.079       .  S
C1466      C1467   1.412       .  A
C1467      C1468   1.429       .  A
C1468      C1469   1.519       .  S
C1469      F1473   1.385       .  S
C1469      F1474   1.384       .  S
C1469      F1475   1.382       .  S
C1472      F1476   1.384       .  S
C1472      F1477   1.383       .  S
C1472      F1478   1.382       .  S
C1479      H1486   1.083       .  S
C1479      C1480   1.397       .  A
C1479      C1484   1.409   1_545  A
C1480      C1481   1.411       .  A
C1481      C1482   1.405       .  A
C1481      C1488   1.519       .  S
C1482      H1487   1.082       .  S
C1482      C1483   1.412   1_545  A
C1483      C1484   1.431       .  A
C1484      C1485   1.519       .  S
C1485      F1489   1.385       .  S
C1485      F1490   1.383       .  S
C1485      F1491   1.383       .  S
C1488      F1492   1.382       .  S
C1488      F1493   1.383       .  S
C1488      F1494   1.385       .  S
C1495      H1502   1.078       .  S
C1495      C1496   1.413       .  A
C1495      C1500   1.407       .  A
C1496      C1497   1.429       .  A
C1497      C1498   1.403       .  A
C1497      C1504   1.509       .  S
C1498      H1503   1.084       .  S
C1498      C1499   1.392       .  A
C1499      C1500   1.409       .  A
C1500      C1501   1.521       .  S
C1501      F1505   1.383       .  S
C1501      F1506   1.382       .  S
C1501      F1507   1.383       .  S
C1504      F1508   1.378       .  S
C1504      F1509   1.383       .  S
C1504      F1510   1.385       .  S
C1511      H1518   1.083       .  S
C1511      C1512   1.394       .  A
C1511      C1516   1.403       .  A
C1512      C1513   1.414       .  A
C1513      C1514   1.406       .  A
C1513      C1520   1.518       .  S
C1514      H1519   1.083       .  S
C1514      C1515   1.408       .  A
C1515      C1516   1.431       .  A
C1516      C1517   1.520       .  S
C1517      F1521   1.385       .  S
C1517      F1522   1.383       .  S
C1517      F1523   1.383       .  S
C1520      F1524   1.383       .  S
C1520      F1525   1.382       .  S
C1520      F1526   1.385       .  S
C1527      H1534   1.084       .  S
C1527      C1528   1.400       .  A
C1527      C1532   1.406   1_545  A
C1528      C1529   1.419       .  A
C1529      C1530   1.410   1_545  A
C1529      C1536   1.519       .  S
C1530      H1535   1.083       .  S
C1530      C1531   1.407       .  A
C1531      C1532   1.424       .  A
C1532      C1533   1.517       .  S
C1533      F1537   1.385   1_565  S
C1533      F1538   1.384       .  S
C1533      F1539   1.383   1_565  S
C1536      F1540   1.384       .  S
C1536      F1541   1.382       .  S
C1536      F1542   1.385   1_545  S
C1543      H1550   1.082       .  S
C1543      C1544   1.407       .  A
C1543      C1548   1.411       .  A
C1544      C1545   1.422       .  A
C1545      C1546   1.404       .  A
C1545      C1552   1.520       .  S
C1546      H1551   1.083       .  S
C1546      C1547   1.398       .  A
C1547      C1548   1.412       .  A
C1548      C1549   1.516       .  S
C1549      F1553   1.384       .  S
C1549      F1554   1.383       .  S
C1549      F1555   1.383       .  S
C1552      F1556   1.383       .  S
C1552      F1557   1.381       .  S
C1552      F1558   1.384       .  S
C1559      H1566   1.076       .  S
C1559      C1560   1.414       .  A
C1559      C1564   1.413       .  A
C1560      C1561   1.423       .  A
C1561      C1562   1.404       .  A
C1561      C1568   1.520       .  S
C1562      H1567   1.083       .  S
C1562      C1563   1.405       .  A
C1563      C1564   1.412       .  A
C1564      C1565   1.517       .  S
C1565      F1569   1.385       .  S
C1565      F1570   1.383       .  S
C1565      F1571   1.382       .  S
C1568      F1572   1.384   1_655  S
C1568      F1573   1.380       .  S
C1568      F1574   1.384       .  S
C1575      H1582   1.080       .  S
C1575      C1576   1.412       .  A
C1575      C1580   1.406       .  A
C1576      C1577   1.430       .  A
C1577      C1578   1.411       .  A
C1577      C1584   1.522       .  S
C1578      H1583   1.083       .  S
C1578      C1579   1.400       .  A
C1579      C1580   1.411       .  A
C1580      C1581   1.520   1_455  S
C1581      F1585   1.382       .  S
C1581      F1586   1.382       .  S
C1581      F1587   1.384       .  S
C1584      F1588   1.383       .  S
C1584      F1589   1.384       .  S
C1584      F1590   1.385       .  S
C1591      H1598   1.082       .  S
C1591      C1592   1.411       .  A
C1591      C1596   1.410       .  A
C1592      C1593   1.435       .  A
C1593      C1594   1.405       .  A
C1593      C1600   1.525       .  S
C1594      H1599   1.083       .  S
C1594      C1595   1.395       .  A
C1595      C1596   1.411       .  A
C1596      C1597   1.517       .  S
C1597      F1601   1.384       .  S
C1597      F1602   1.382       .  S
C1597      F1603   1.383       .  S
C1600      F1604   1.384       .  S
C1600      F1605   1.382       .  S
C1600      F1606   1.385       .  S
C1607      H1614   1.084       .  S
C1607      C1608   1.398       .  A
C1607      C1612   1.401       .  A
C1608      C1609   1.415       .  A
C1609      C1610   1.411   1_655  A
C1609      C1616   1.516       .  S
C1610      H1615   1.083       .  S
C1610      C1611   1.409       .  A
C1611      C1612   1.422   1_455  A
C1612      C1613   1.518       .  S
C1613      F1617   1.385       .  S
C1613      F1618   1.373       .  S
C1613      F1619   1.384       .  S
C1616      F1620   1.382       .  S
C1616      F1621   1.383       .  S
C1616      F1622   1.385   1_655  S
C1623      H1630   1.080       .  S
C1623      C1624   1.411       .  A
C1623      C1628   1.405       .  A
C1624      C1625   1.430       .  A
C1625      C1626   1.411       .  A
C1625      C1632   1.521       .  S
C1626      H1631   1.083       .  S
C1626      C1627   1.399       .  A
C1627      C1628   1.412       .  A
C1628      C1629   1.520       .  S
C1629      F1633   1.383       .  S
C1629      F1634   1.385       .  S
C1629      F1635   1.381       .  S
C1632      F1636   1.383       .  S
C1632      F1637   1.383       .  S
C1632      F1638   1.385       .  S
