geometry optimzed in LAMMPS
_audit_creation_date              2020-11-30 
_audit_creation_method            'lammps2cif' 
_symmetry_space_group_name_H-M    'P1' 
_symmetry_Int_Tables_number       1 
_symmetry_cell_setting            triclinic 
loop_ 
_symmetry_equiv_pos_as_xyz 
  x,y,z 
_cell_length_a                    48.71498817 
_cell_length_b                    49.506737380386745 
_cell_length_c                    26.89657240359032 
_cell_angle_alpha                 90.15590272174002 
_cell_angle_beta                  89.07430034801526 
_cell_angle_gamma                 120.28042513338555 
loop_ 
_atom_site_label 
_atom_site_type_symbol 
_atom_site_fract_x 
_atom_site_fract_y 
_atom_site_fract_z 
_atom_site_charge 
C1          C  0.11993235  0.18044954  0.29089695     0.02500
C2          C  0.09105604  0.15320125  0.27396779     0.02500
C3          C  0.06162897  0.15122643  0.28631119     0.02500
C4          C  0.06174537  0.17351267  0.31989801     0.02500
C5          C  0.08911760  0.19450457  0.34700989     0.02500
C6          C  0.11839068  0.19628245  0.33519069     0.02500
C7          C  0.13766898  0.08092098  0.18004331     0.02500
C8          C  0.13699583  0.05170252  0.17793123     0.02500
C9          C  0.16222241  0.05140978  0.15182821    -0.18000
C10         C  0.18544013  0.07670118  0.12336423     0.02500
C11         C  0.18509526  0.10523293  0.12303255     0.02500
C12         C  0.16114043  0.10647228  0.15139200    -0.18000
H13         H  0.16064767  0.12803913  0.15067400     0.04500
H14         H  0.16381778  0.03039616  0.15303506     0.04500
C15         C  0.43560488  0.08479634  0.18459411     0.02500
C16         C  0.41011695  0.05406881  0.17151576     0.02500
C17         C  0.38825644  0.05348820  0.13635587    -0.18000
C18         C  0.38433191  0.07917584  0.12518453     0.02500
C19         C  0.41078755  0.10928144  0.13446799     0.02500
C20         C  0.43460402  0.11102466  0.16585748    -0.18000
H21         H  0.45468588  0.13387627  0.17361920     0.04500
H22         H  0.37217250  0.03195113  0.11815213     0.04500
C23         C  0.12251136  0.43976203  0.29877035     0.02500
C24         C  0.09523385  0.44077824  0.28022545     0.02500
C25         C  0.06454399  0.41397478  0.28563831     0.02500
C26         C  0.06015229  0.38882085  0.31627796     0.02500
C27         C  0.08591047  0.38943597  0.34127913     0.02500
C28         C  0.11674308  0.41625401  0.33636749     0.02500
C29         C  0.33397957  0.38837519  0.32383788     0.02500
C30         C  0.35792155  0.41411835  0.29584151     0.02500
C31         C  0.35832667  0.44298939  0.29760492     0.02500
C32         C  0.33644620  0.44616585  0.33026732     0.02500
C33         C  0.31229809  0.42002469  0.35782902     0.02500
C34         C  0.31118604  0.39080291  0.35463872     0.02500
C35         C  0.41253079  0.35071296  0.19057307     0.02500
C36         C  0.44162648  0.35590972  0.16867397     0.02500
C37         C  0.43978269  0.33691909  0.12807232    -0.18000
C38         C  0.41172779  0.30954600  0.11519429     0.02500
C39         C  0.38273928  0.30395972  0.13755235     0.02500
C40         C  0.38450635  0.32319277  0.17780197    -0.18000
H41         H  0.36297645  0.31827711  0.19715529     0.04500
H42         H  0.46135347  0.34159722  0.10898404     0.04500
C43         C  0.21929148  0.99625055  0.97487063     0.02500
C44         C  0.24163113  0.01832225  0.00882060     0.02500
C45         C  0.26999296  0.01823879  0.01681869     0.02500
C46         C  0.27568798  0.99672685  0.99038017     0.02500
C47         C  0.25014277  0.47393269  0.96854929     0.02500
C48         C  0.22106208  0.47363881  0.96494487     0.02500
C49         C  0.21678311  0.21919190  0.99220018     0.02500
C50         C  0.24368582  0.22099816  0.01546829     0.02500
C51         C  0.27260113  0.24938366  0.01271838     0.02500
C52         C  0.27567196  0.27350744  0.98017241     0.02500
C53         C  0.24958128  0.27013690  0.95195105     0.02500
C54         C  0.21925694  0.24345850  0.96063223     0.02500
C55         C  0.99624639  0.27912009  0.99952058     0.02500
C56         C  0.47269421  0.25093616  0.01725752     0.02500
C57         C  0.47277892  0.22236261  0.01626033     0.02500
C58         C  0.99773409  0.22341161  0.00217153     0.02500
C59         C  0.01822702  0.24743335  0.96827852     0.02500
C60         C  0.01783995  0.27567383  0.96753403     0.02500
C61         C  0.17067129  0.11313538  0.68265717     0.02500
C62         C  0.19295625  0.11276320  0.64791822     0.02500
C63         C  0.19367576  0.08492075  0.64238150     0.02500
C64         C  0.17156016  0.05789081  0.66968307     0.02500
C65         C  0.14813535  0.05778865  0.70279592     0.02500
C66         C  0.14867411  0.08626775  0.71100538     0.02500
C67         C  0.09815721  0.18526654  0.87357041     0.02500
C68         C  0.07749802  0.19256392  0.84766580     0.02500
C69         C  0.06328560  0.17466952  0.80482259    -0.18000
C70         C  0.06377102  0.14699072  0.79325590     0.02500
C71         C  0.08413565  0.13962025  0.82003883     0.02500
C72         C  0.09791954  0.15728374  0.86310385    -0.18000
H73         H  0.11253427  0.15165225  0.88577658     0.04500
H74         H  0.04931991  0.18067398  0.78137982     0.04500
C75         C  0.07972909  0.38741389  0.84241429     0.02500
C76         C  0.10668779  0.41707793  0.85518102     0.02500
C77         C  0.10945419  0.44463012  0.83421158    -0.18000
C78         C  0.08654457  0.44442907  0.80262638     0.02500
C79         C  0.06001088  0.41528151  0.79031384     0.02500
C80         C  0.06007058  0.38817296  0.80495594    -0.18000
H81         H  0.04200825  0.36672275  0.78887986     0.04500
H82         H  0.13067754  0.46686592  0.84140951     0.04500
C83         C  0.39188515  0.05831295  0.67996246     0.02500
C84         C  0.41818291  0.06219308  0.70818809     0.02500
C85         C  0.44785597  0.08961473  0.70137082     0.02500
C86         C  0.44987338  0.11354930  0.66953578     0.02500
C87         C  0.42352693  0.11063719  0.64266916     0.02500
C88         C  0.39430201  0.08157417  0.64556392     0.02500
C89         C  0.44551572  0.33067736  0.68799919     0.02500
C90         C  0.44128778  0.35300364  0.71538749     0.02500
C91         C  0.41323187  0.35370705  0.70981800     0.02500
C92         C  0.38868093  0.32985316  0.68130227     0.02500
C93         C  0.39220138  0.30707633  0.65392626     0.02500
C94         C  0.42203566  0.30873382  0.65490236     0.02500
C95         C  0.31262841  0.41508458  0.87188135     0.02500
C96         C  0.30430435  0.38770963  0.84330407     0.02500
C97         C  0.32453176  0.39137281  0.80232300    -0.18000
C98         C  0.35488372  0.41798030  0.79541211     0.02500
C99         C  0.36317112  0.44540404  0.82326730     0.02500
C100        C  0.34320299  0.44169490  0.86469837    -0.18000
H101        H  0.34950524  0.46137147  0.88898241     0.04500
H102        H  0.31861738  0.37137260  0.77889638     0.04500
C103        C  0.02789001  0.27317866  0.45124576     0.02500
C104        C  0.03677500  0.25257595  0.47385039     0.02500
C105        C  0.01837357  0.23540341  0.51604199    -0.18000
C106        C  0.48554798  0.23022024  0.54002866     0.02500
C107        C  0.47968205  0.25447299  0.52530011     0.02500
C108        C  0.99929918  0.27160031  0.46660976    -0.18000
H109        H  0.99279129  0.28703345  0.44836937     0.04500
H110        H  0.02496282  0.22085882  0.53638381     0.04500
C111        C  0.25938226  0.27639546  0.46584512     0.02500
C112        C  0.23313513  0.24556167  0.45846243     0.02500
C113        C  0.23290972  0.22123736  0.48569527    -0.18000
C114        C  0.25380100  0.22555826  0.52437407     0.02500
C115        C  0.28208636  0.25522439  0.52778794     0.02500
C116        C  0.28393255  0.27989345  0.49827447    -0.18000
H117        H  0.30504772  0.30270454  0.50126898     0.04500
H118        H  0.21365627  0.19764218  0.48029811     0.04500
C119        C  0.25322752  0.47832679  0.46636908     0.02500
C120        C  0.22354725  0.47784809  0.47191351     0.02500
C121        C  0.22441699  0.00394890  0.50834404    -0.18000
C122        C  0.25170527  0.03022726  0.52810090     0.02500
C123        C  0.28064915  0.02952266  0.52427167     0.02500
C124        C  0.28128826  0.00653258  0.49376329    -0.18000
H125        H  0.30377903  0.00731883  0.48915090     0.04500
H126        H  0.20149585  0.00118462  0.51798548     0.04500
O127        O  0.46628120  0.01647584  0.98306960    -0.88100
C128        C  0.02797279  0.04769156  0.11032926     0.87900
Mg129      Mg  0.42621332  0.46877139  0.98530468     1.58100
O130        O  0.04788402  0.03504440  0.99055279    -0.87800
O131        O  0.99830373  0.05320358  0.95547110    -0.75200
C132        C  0.49728856  0.39016938  0.02755686     0.93000
O133        O  0.44684714  0.99924130  0.09937750    -0.75000
O134        O  0.47089882  0.38872983  0.03521062    -0.82500
Mg135      Mg  0.46715510  0.04210273  0.04741414     1.58000
C136        C  0.09957695  0.98939577  0.97741685     0.92900
O137        O  0.48331072  0.08623618  0.00222998    -0.80800
H138        H  0.05561814  0.04603787  0.91813620    -0.06100
C139        C  0.02774752  0.46721060  0.08552523     0.87800
O140        O  0.45416792  0.45611477  0.93029945    -0.75300
O141        O  0.01555511  0.05027471  0.07222988    -0.88000
O142        O  0.10153345  0.01524016  0.98870887    -0.80800
C143        C  0.11041842  0.10057844  0.04037867     0.93000
C144        C  0.00900932  0.11415996  0.02461611     0.92900
Mg145      Mg  0.02668519  0.46316509  0.97350255     1.58000
O146        O  0.01429141  0.41614347  0.00424990    -0.80800
O147        O  0.04241326  0.50955700  0.93305840    -0.75000
O148        O  0.08429238  0.09773009  0.05430708    -0.80800
O149        O  0.41899875  0.03289826  0.03275033    -0.82600
O150        O  0.41464316  0.39435724  0.00030205    -0.80900
C151        C  0.04847658  0.02821170  0.94654955     0.87300
O152        O  0.48600868  0.44902680  0.97772546    -0.88000
O153        O  0.03590534  0.48305680  0.04691417    -0.88100
O154        O  0.50161956  0.45259371  0.09469845    -0.75200
Mg155      Mg  0.04163052  0.07398685  0.00621965     1.58000
O156        O  0.11352290  0.07688854  0.03471256    -0.82500
H157        H  0.46293836  0.02118119  0.90984524    -0.06300
O158        O  0.44741832  0.46184258  0.04957094    -0.87800
H159        H  0.43381195  0.45122410  0.12088838    -0.06100
H160        H  0.48383600  0.44150357  0.90440681    -0.06300
C161        C  0.44259825  0.46870247  0.09165287     0.87300
C162        C  0.47772021  0.02889151  0.94233901     0.87900
C163        C  0.47488167  0.44814693  0.93638982     0.87900
H164        H  0.04501190  0.47079177  0.11284421    -0.06300
O165        O  0.04918709  0.03986079  0.10842672    -0.75300
Mg166      Mg  0.45900769  0.42613392  0.04352515     1.58000
H167        H  0.02057405  0.05207648  0.14609162    -0.06300
C168        C  0.39420831  0.00661704  0.02739270     0.92900
O169        O  0.38787893  0.41882832  0.98565085    -0.82500
C170        C  0.38932009  0.39403344  0.98886356     0.93000
O171        O  0.03541167  0.11515545  0.02035232    -0.82500
Mg172      Mg  0.07380160  0.02717916  0.04561442     1.58200
O173        O  0.39356085  0.47801438  0.03478786    -0.80800
O174        O  0.07559849  0.47138383  0.96869678    -0.82500
O175        O  0.30541716  0.18547256  0.27345680    -0.88100
C176        C  0.34704877  0.21920792  0.40850274     0.87900
Mg177      Mg  0.26512494  0.13887414  0.26784355     1.58100
O178        O  0.39040380  0.20515262  0.31848906    -0.87800
O179        O  0.35193131  0.22065145  0.24318237    -0.75200
C180        C  0.32067516  0.05573927  0.36554960     0.93000
O181        O  0.27181745  0.16884590  0.38487419    -0.75000
O182        O  0.29443342  0.05414255  0.35581863    -0.82500
Mg183      Mg  0.30110420  0.21175589  0.33393987     1.58000
C184        C  0.43703025  0.16120436  0.35521345     0.92900
O185        O  0.32537502  0.25536598  0.28543483    -0.80800
H186        H  0.41119805  0.21290944  0.25113164    -0.06100
C187        C  0.34392031  0.13875654  0.42548950     0.87800
O188        O  0.29743156  0.12088155  0.23719206    -0.75300
O189        O  0.34353165  0.21739433  0.36297712    -0.88000
O190        O  0.43541494  0.18545078  0.36395757    -0.80800
C191        C  0.43982985  0.27126954  0.38304014     0.93000
C192        C  0.34789420  0.28102521  0.30075124     0.92900
Mg193      Mg  0.36569796  0.12534210  0.32790689     1.58000
O194        O  0.34477654  0.08163065  0.37665729    -0.80800
O195        O  0.39083600  0.16795293  0.27546187    -0.75000
O196        O  0.41251221  0.26793345  0.38015730    -0.80800
O197        O  0.25816470  0.20708896  0.30357305    -0.82600
O198        O  0.24981720  0.06577135  0.28937890    -0.80900
C199        C  0.39828422  0.19632258  0.28069057     0.87300
O200        O  0.32123083  0.11734914  0.30247639    -0.88000
O201        O  0.36170312  0.15124770  0.38896507    -0.88100
O202        O  0.31477895  0.11795561  0.42058281    -0.75200
Mg203      Mg  0.38242050  0.24328314  0.31347959     1.58000
O204        O  0.44282061  0.24776662  0.39153827    -0.82500
H205        H  0.31420130  0.19224187  0.20012872    -0.06300
O206        O  0.27284754  0.13118149  0.34437649    -0.87800
H207        H  0.24905637  0.12367483  0.40900872    -0.06100
H208        H  0.32934846  0.10590061  0.23461149    -0.06300
C209        C  0.26373953  0.14024999  0.38043409     0.87300
C210        C  0.32321596  0.19892209  0.23732772     0.87900
C211        C  0.31670288  0.11428654  0.25732991     0.87900
H212        H  0.35325894  0.14589932  0.46242197    -0.06300
O213        O  0.36689885  0.21332127  0.42861696    -0.75300
Mg214      Mg  0.28288688  0.09337902  0.35291216     1.58000
H215        H  0.33310057  0.22594825  0.43149437    -0.06300
C216        C  0.23319536  0.18426957  0.28713401     0.92900
O217        O  0.22269641  0.08911002  0.26997781    -0.82500
C218        C  0.22379324  0.06448408  0.27964090     0.93000
O219        O  0.37370026  0.28316949  0.31348334    -0.82500
Mg220      Mg  0.40056879  0.19828048  0.39311005     1.58200
O221        O  0.23005327  0.15713630  0.28243860    -0.80800
O222        O  0.41275835  0.13425513  0.35175775    -0.82500
O223        O  0.13726917  0.35612717  0.66422788    -0.88100
C224        C  0.19637720  0.38294900  0.78111144     0.87900
Mg225      Mg  0.09826872  0.30931886  0.66192634     1.58100
O226        O  0.22249565  0.37299854  0.66437584    -0.87800
O227        O  0.17666550  0.39302654  0.62165233    -0.75200
C228        C  0.16185442  0.22360754  0.69659241     0.93000
O229        O  0.11995047  0.33199050  0.77808588    -0.75000
O230        O  0.13498508  0.22173415  0.69970027    -0.82500
Mg231      Mg  0.13939280  0.37806357  0.73338653     1.58000
C232        C  0.27367508  0.32895728  0.66204125     0.92900
O233        O  0.15718688  0.42576784  0.69576825    -0.80800
H234        H  0.23441442  0.38629836  0.59329025    -0.06100
C235        C  0.19556479  0.30281738  0.76215469     0.87800
O236        O  0.12455550  0.29686437  0.60277186    -0.75300
O237        O  0.18611102  0.38558304  0.74064655    -0.88000
O238        O  0.27322957  0.35404819  0.66703480    -0.80800
C239        C  0.28303143  0.43569352  0.72302759     0.93000
C240        C  0.18393592  0.45091074  0.69192233     0.92900
Mg241      Mg  0.20110950  0.29489853  0.65169340     1.58000
O242        O  0.18724818  0.24925600  0.68884306    -0.80800
O243        O  0.21887209  0.34038932  0.60678078    -0.75000
O244        O  0.25645862  0.43294712  0.73396504    -0.80800
O245        O  0.09000671  0.36921353  0.71972271    -0.82600
O246        O  0.08558682  0.23622336  0.65900526    -0.80900
C247        C  0.22579618  0.36761512  0.62049421     0.87300
O248        O  0.15483190  0.28653243  0.64849336    -0.88000
O249        O  0.20581690  0.31690483  0.72224271    -0.88100
O250        O  0.16654308  0.28202143  0.76762143    -0.75200
Mg251      Mg  0.21646846  0.41142577  0.67956496     1.58000
O252        O  0.28572664  0.41176995  0.71910951    -0.82500
H253        H  0.13234720  0.36606537  0.59392447    -0.06300
O254        O  0.11847400  0.29894763  0.72288638    -0.87800
H255        H  0.10479031  0.28636552  0.79376098    -0.06100
H256        H  0.15354112  0.28198528  0.57442895    -0.06300
C257        C  0.11398682  0.30475344  0.76596649     0.87300
C258        C  0.14781494  0.37135345  0.62530628     0.87900
C259        C  0.14463091  0.28787356  0.60730987     0.87900
H260        H  0.21140662  0.30877922  0.79318916    -0.06300
O261        O  0.21769304  0.37530342  0.78347002    -0.75300
Mg262      Mg  0.12620704  0.26122600  0.71121813     1.58000
H263        H  0.18712000  0.38721920  0.81516387    -0.06300
C264        C  0.06598924  0.34209393  0.71502184     0.92900
O265        O  0.05790376  0.26065314  0.66108932    -0.82500
C266        C  0.05972233  0.23620275  0.65626591     0.93000
O267        O  0.21010919  0.45159746  0.69462971    -0.82500
Mg268      Mg  0.24445781  0.36326245  0.72329590     1.58200
O269        O  0.06867476  0.31813413  0.71775522    -0.80800
O270        O  0.24888037  0.30274470  0.65777525    -0.82500
C271        C  0.47628438  0.33232920  0.69218739    -0.05200
C272        C  0.50295762  0.35747645  0.66949491    -0.32700
C273        C  0.03359450  0.35659853  0.66396792     0.36600
C274        C  0.03523760  0.33806310  0.70185365    -0.05600
C275        C  0.00720254  0.31385593  0.72354166    -0.32600
C276        C  0.47965680  0.31142529  0.72295375     0.36500
H277        H  0.50039324  0.37366074  0.64574736     0.16900
O278        O  0.06062162  0.37979356  0.64113260    -0.60100
H279        H  0.00830598  0.29906068  0.75213164     0.16900
O280        O  0.45366734  0.28680412  0.74554130    -0.60200
H281        H  0.45092157  0.29510527  0.77763458     0.43900
H282        H  0.06478120  0.36950994  0.61262545     0.43800
C283        C  0.35926934  0.33016992  0.67714284    -0.05200
C284        C  0.35381330  0.34157974  0.63317748    -0.32700
C285        C  0.32625295  0.34269835  0.62855102     0.36600
C286        C  0.30319690  0.32989190  0.66635550    -0.05600
C287        C  0.30839977  0.31817621  0.71021223    -0.32600
C288        C  0.33698269  0.31909153  0.71640254     0.36500
H289        H  0.37132420  0.35022538  0.60314202     0.16900
O290        O  0.32193136  0.35598566  0.58711257    -0.60100
H291        H  0.29049028  0.30875836  0.73969232     0.16900
O292        O  0.34231237  0.30747305  0.75916239    -0.60200
H293        H  0.34682864  0.32345241  0.78486294     0.43900
H294        H  0.33043729  0.37827095  0.59568959     0.43800
C295        C  0.40860995  0.37891925  0.73307267    -0.05200
C296        C  0.40508422  0.37985347  0.78483365    -0.32700
C297        C  0.39105971  0.39618167  0.80575417     0.36600
C298        C  0.37891437  0.41058692  0.77474271    -0.05600
C299        C  0.38492419  0.41183187  0.72340049    -0.32600
C300        C  0.40168748  0.39809066  0.70315685     0.36500
H301        H  0.41094962  0.36604533  0.80886331     0.16900
O302        O  0.38736969  0.39625571  0.85645298    -0.60100
H303        H  0.37641271  0.42324071  0.69902781     0.16900
O304        O  0.40881467  0.40130749  0.65325155    -0.60200
H305        H  0.43146362  0.41798863  0.65060827     0.43900
H306        H  0.36951199  0.37516826  0.86527038     0.43800
C307        C  0.31049542  0.26220844  0.55922076    -0.05200
C308        C  0.30740710  0.25529756  0.61041780    -0.32700
C309        C  0.33440341  0.26511971  0.64016680     0.36600
C310        C  0.36537900  0.28511556  0.62045474    -0.05600
C311        C  0.36861474  0.29023709  0.56897728    -0.32600
C312        C  0.34174520  0.27861214  0.53854667     0.36500
H313        H  0.28406089  0.24310287  0.62793470     0.16900
O314        O  0.33016415  0.25746453  0.68971977    -0.60100
H315        H  0.39196489  0.30524502  0.55259152     0.16900
O316        O  0.34631945  0.28440268  0.48845401    -0.60200
H317        H  0.35588687  0.30738913  0.48489864     0.43900
H318        H  0.32970566  0.23727875  0.69180094     0.43800
C319        C  0.43168996  0.29242362  0.61687355    -0.05200
C320        C  0.45833377  0.31136122  0.58719563    -0.32700
C321        C  0.47484616  0.29926861  0.56199524     0.36600
C322        C  0.46162743  0.26644667  0.55636245    -0.05600
C323        C  0.43200259  0.24693533  0.58047542    -0.32600
C324        C  0.41780953  0.25964513  0.61237662     0.36500
H325        H  0.46836770  0.33645083  0.58735550     0.16900
O326        O  0.00273867  0.32027483  0.51910179    -0.60100
H327        H  0.41997988  0.22190783  0.57550776     0.16900
O328        O  0.39123969  0.23995542  0.64002650    -0.60200
H329        H  0.37364579  0.23051149  0.61596809     0.43900
H330        H  0.01771699  0.32531701  0.54684338     0.43800
C331        C  0.30988052  0.46654025  0.71078306    -0.05200
C332        C  0.31158089  0.49279780  0.73322084    -0.32700
C333        C  0.33907777  0.02223032  0.72062280     0.36600
C334        C  0.36242173  0.02776109  0.68404847    -0.05600
C335        C  0.35617476  0.50024008  0.65979907    -0.32600
C336        C  0.33193530  0.47032823  0.67300389     0.36500
H337        H  0.29433721  0.49009158  0.76150428     0.16900
O338        O  0.34157777  0.04616409  0.74995153    -0.60100
H339        H  0.37382898  0.50300236  0.63209671     0.16900
O340        O  0.32928515  0.44510886  0.64751436    -0.60200
H341        H  0.34353587  0.43945412  0.66468331     0.43900
H342        H  0.32010045  0.04385911  0.75212086     0.43800
C343        C  0.47937420  0.14381481  0.66814107    -0.05200
C344        C  0.48451128  0.16458099  0.70690406    -0.32700
C345        C  0.00906153  0.19632113  0.69269158     0.36600
C346        C  0.03110879  0.20627791  0.65297838    -0.05600
C347        C  0.02843816  0.18559278  0.61534556    -0.32600
C348        C  0.00282481  0.15511669  0.61590866     0.36500
H349        H  0.46804837  0.15751551  0.73829449     0.16900
O350        O  0.01194680  0.21622942  0.73050996    -0.60100
H351        H  0.04615293  0.19311678  0.58568963     0.16900
O352        O  0.99895638  0.13526976  0.57744131    -0.60200
H353        H  0.01765065  0.13229760  0.57824197     0.43900
H354        H  0.53237080  0.21894062  0.76004711     0.43800
C355        C  0.38424784  0.47847002  0.80197560    -0.05200
C356        C  0.37621630  0.50170824  0.81295604    -0.32700
C357        C  0.39444287  0.03082488  0.78694481     0.36600
C358        C  0.41345652  0.03666719  0.74410625    -0.05600
C359        C  0.42291505  0.01493913  0.73185313    -0.32600
C360        C  0.40971462  0.48731384  0.76706091     0.36500
H361        H  0.35776963  0.49783912  0.83956926     0.16900
O362        O  0.38808980  0.05322922  0.80445199    -0.60100
H363        H  0.43928561  0.01978948  0.70090570     0.16900
O364        O  0.42548392  0.47108394  0.76313445    -0.60200
H365        H  0.43924833  0.47711690  0.79268831     0.43900
H366        H  0.39354031  0.05586823  0.84020353     0.43800
C367        C  0.30978904  0.04815073  0.55497551    -0.05200
C368        C  0.34014970  0.06112606  0.53229739    -0.32700
C369        C  0.36769524  0.07108436  0.56079366     0.36600
C370        C  0.36633268  0.07417402  0.61284276    -0.05600
C371        C  0.33619812  0.06381277  0.63471383    -0.32600
C372        C  0.30817194  0.04686834  0.60733190     0.36500
H373        H  0.34206399  0.06025140  0.49224559     0.16900
O374        O  0.39425349  0.07298719  0.53878238    -0.60100
H375        H  0.33421608  0.06666122  0.67391711     0.16900
O376        O  0.27806635  0.53052037  0.62630249    -0.60200
H377        H  0.27482258  0.50967114  0.63528704     0.43900
H378        H  0.39688899  0.08274297  0.50556388     0.43800
C379        C  0.46135902  0.19933891  0.56429227    -0.05200
C380        C  0.45092170  0.19634892  0.61424624    -0.32700
C381        C  0.43309333  0.16649046  0.63744853     0.36600
C382        C  0.42841734  0.13902555  0.61295387    -0.05600
C383        C  0.43850893  0.14236793  0.56306536    -0.32600
C384        C  0.45274934  0.17133761  0.53825247     0.36500
H385        H  0.45753344  0.21713006  0.63596163     0.16900
O386        O  0.42370641  0.16488640  0.68619685    -0.60100
H387        H  0.43875233  0.12333866  0.54417315     0.16900
O388        O  0.46131448  0.17243004  0.48914946    -0.60200
H389        H  0.44228509  0.16842481  0.47032123     0.43900
H390        H  0.40043992  0.15646987  0.68527401     0.43800
C391        C  0.46740225  0.37604133  0.74791515    -0.05200
C392        C  0.47125089  0.36642969  0.79476625    -0.32700
C393        C  0.50089077  0.38181856  0.81804084     0.36600
C394        C  0.02887842  0.40988304  0.77035208    -0.05600
C395        C  0.02549023  0.41811652  0.72162972    -0.32600
C396        C  0.99590566  0.40284803  0.69823828     0.36500
H397        H  0.45189042  0.34552188  0.81175452     0.16900
O398        O  0.50364722  0.37184657  0.86425383    -0.60100
H399        H  0.04540846  0.43423194  0.69932605     0.16900
O400        O  0.99372331  0.41062250  0.65015292    -0.60200
H401        H  0.98329316  0.42335515  0.65269243     0.43900
H402        H  0.49667790  0.34932808  0.86094268     0.43800
C403        C  0.47718832  0.09451108  0.72755552    -0.05200
C404        C  0.00516014  0.10279932  0.69107405    -0.32700
C405        C  0.03426074  0.11787216  0.71609903     0.36600
C406        C  0.03474093  0.12313108  0.76747484    -0.05600
C407        C  0.50983982  0.10914370  0.80161513    -0.32600
C408        C  0.47996406  0.09735246  0.77969136     0.36500
H409        H  0.00535561  0.09954798  0.65131238     0.16900
O410        O  0.06209573  0.12971792  0.68939920    -0.60100
H411        H  0.51162011  0.11265457  0.84150287     0.16900
O412        O  0.45464397  0.09267760  0.80894604    -0.60200
H413        H  0.45196828  0.07697916  0.83438556     0.43900
H414        H  0.06472746  0.14885721  0.67308234     0.43800
C415        C  0.16374169  0.19519563  0.69753170    -0.05200
C416        C  0.13945184  0.16857873  0.67498247    -0.32700
C417        C  0.14160288  0.14179346  0.66993466     0.36600
C418        C  0.16856320  0.14169843  0.68735388    -0.05600
C419        C  0.19330502  0.16844828  0.70913528    -0.32600
C420        C  0.19110749  0.19532010  0.71411918     0.36500
H421        H  0.11963219  0.16917737  0.65865460     0.16900
O422        O  0.11906320  0.11677718  0.64365876    -0.60100
H423        H  0.21417646  0.16835145  0.72221565     0.16900
O424        O  0.21556946  0.22140319  0.73545534    -0.60200
H425        H  0.23201462  0.23141956  0.70879978     0.43900
H426        H  0.09829445  0.11085287  0.65968689     0.43800
C427        C  0.17518564  0.03016715  0.66611414    -0.05200
C428        C  0.17356777  0.51343658  0.63384757    -0.32700
C429        C  0.17396304  0.48577846  0.63978433     0.36600
C430        C  0.18462658  0.48012678  0.68440046    -0.05600
C431        C  0.19568300  0.50238340  0.72233441    -0.32600
C432        C  0.19170680  0.02454077  0.70300100     0.36500
H433        H  0.16424779  0.51712803  0.59992810     0.16900
O434        O  0.16380148  0.46433084  0.60205957    -0.60100
H435        H  0.20427029  0.49807595  0.75662813     0.16900
O436        O  0.20395031  0.04416277  0.74288773    -0.60200
H437        H  0.22631342  0.05929070  0.73329471     0.43900
H438        H  0.14035115  0.45191033  0.60618173     0.43800
C439        C  0.12408891  0.02790886  0.72856272    -0.05200
C440        C  0.12020457  0.02588301  0.78064718    -0.32700
C441        C  0.10519179  0.50229379  0.80224480     0.36600
C442        C  0.09526247  0.47415267  0.77616920    -0.05600
C443        C  0.10035023  0.47582102  0.72463952    -0.32600
C444        C  0.10686646  0.00014682  0.70116713     0.36500
H445        H  0.13247372  0.04662406  0.80325584     0.16900
O446        O  0.09866345  0.50170196  0.85206787    -0.60100
H447        H  0.09561528  0.45519951  0.70386794     0.16900
O448        O  0.10409772  0.00102656  0.65067745    -0.60200
H449        H  0.09133842  0.50170017  0.64048856     0.43900
H450        H  0.07571825  0.99261553  0.86032603     0.43800
C451        C  0.12848215  0.09044123  0.75044258    -0.05200
C452        C  0.14474713  0.11441649  0.78463265    -0.32700
C453        C  0.13103488  0.13096554  0.80490728     0.36600
C454        C  0.09807416  0.12025209  0.79930999    -0.05600
C455        C  0.08021363  0.09224421  0.77232211    -0.32600
C456        C  0.09528749  0.07783378  0.74695808     0.36500
H457        H  0.17011354  0.12406404  0.78869166     0.16900
O458        O  0.15137270  0.16007576  0.82360371    -0.60100
H459        H  0.05481092  0.08202938  0.76911037     0.16900
O460        O  0.07751479  0.05184433  0.71856068    -0.60200
H461        H  0.07344796  0.05959989  0.68722449     0.43900
H462        H  0.16173135  0.15654058  0.85228071     0.43800
C463        C  0.21576236  0.08230570  0.60595498    -0.05200
C464        C  0.24417333  0.08477054  0.62184624    -0.32700
C465        C  0.26128032  0.07530041  0.59095019     0.36600
C466        C  0.24651196  0.05644005  0.54887987    -0.05600
C467        C  0.22147895  0.05971010  0.52926032    -0.32600
C468        C  0.20630485  0.07256814  0.55711978     0.36500
H469        H  0.25374594  0.09517249  0.65750848     0.16900
O470        O  0.29339868  0.09021436  0.59684969    -0.60100
H471        H  0.20869177  0.54515864  0.49045544     0.16900
O472        O  0.18012583  0.07222331  0.53838209    -0.60200
H473        H  0.18617825  0.58714777  0.51357438     0.43900
H474        H  0.30240661  0.10772837  0.57253935     0.43800
C475        C  0.21146632  0.14029440  0.61327623    -0.05200
C476        C  0.19388956  0.15076805  0.58781039    -0.32700
C477        C  0.20818574  0.18107179  0.56992778     0.36600
C478        C  0.24141009  0.19821965  0.56011911    -0.05600
C479        C  0.25970351  0.18602767  0.57949310    -0.32600
C480        C  0.24512358  0.15854719  0.60954520     0.36500
H481        H  0.16828020  0.13672156  0.58719025     0.16900
O482        O  0.18902357  0.19338963  0.56062439    -0.60100
H483        H  0.28508780  0.19790383  0.57262811     0.16900
O484        O  0.26375916  0.15080449  0.63671293    -0.60200
H485        H  0.27873189  0.14965139  0.61255640     0.43900
H486        H  0.19298805  0.20823532  0.58809128     0.43800
C487        C  0.00772895  0.14266156  0.01702110    -0.05200
C488        C  0.48553280  0.14008698  0.95862717    -0.32700
C489        C  0.48057513  0.16549653  0.95653081     0.36600
C490        C  0.00086638  0.19522561  0.00636666    -0.05600
C491        C  0.02169081  0.19510661  0.04157871    -0.32600
C492        C  0.02551837  0.16913147  0.04656464     0.36500
H493        H  0.47193210  0.12007946  0.93490065     0.16900
O494        O  0.45973243  0.16558291  0.92269248    -0.60100
H495        H  0.03494536  0.21522448  0.06521534     0.16900
O496        O  0.04549190  0.16919667  0.08193113    -0.60200
H497        H  0.06647990  0.17771698  0.06485127     0.43900
H498        H  0.44039551  0.14449574  0.92384803     0.43800
C499        C  0.99645188  0.30901510  0.00014820    -0.05200
C500        C  0.48764399  0.31882112  0.96612933    -0.32700
C501        C  0.48413946  0.34427303  0.97746915     0.36600
C502        C  0.99096400  0.36215546  0.01024757    -0.05600
C503        C  0.01521627  0.36039585  0.03468714    -0.32600
C504        C  0.01779514  0.33368817  0.03021920     0.36500
H505        H  0.47823502  0.30629502  0.93174905     0.16900
O506        O  0.46750042  0.35241289  0.94618202    -0.60100
H507        H  0.03169380  0.37946792  0.05791496     0.16900
O508        O  0.04049663  0.33143239  0.05635738    -0.60200
H509        H  0.05974862  0.34114791  0.03455169     0.43900
H510        H  0.44488322  0.33911397  0.95652127     0.43800
C511        C  0.06684035  0.35599081  0.86959665    -0.05200
C512        C  0.03358229  0.33420813  0.86786531    -0.32700
C513        C  0.01942377  0.30568798  0.89272274     0.36600
C514        C  0.03621596  0.30025927  0.92894056    -0.05600
C515        C  0.06928342  0.32045658  0.93068644    -0.32600
C516        C  0.08486364  0.34646141  0.89804771     0.36500
H517        H  0.01714478  0.33871452  0.84844382     0.16900
O518        O  0.98810100  0.28425381  0.88436192    -0.60100
H519        H  0.08311755  0.31622214  0.95714502     0.16900
O520        O  0.11720764  0.36094264  0.89306283    -0.60200
H521        H  0.12138329  0.34672808  0.87252204     0.43900
H522        H  0.54074311  0.27414368  0.82917888     0.43800
C523        C  0.03680669  0.24080425  0.93002174    -0.05200
C524        C  0.02049619  0.22155810  0.89016388    -0.32700
C525        C  0.03296755  0.20575890  0.86328632     0.36600
C526        C  0.06494019  0.21280406  0.87024821    -0.05600
C527        C  0.08291705  0.23686388  0.90450606    -0.32600
C528        C  0.06864242  0.24908466  0.93653907     0.36500
H529        H  0.49795085  0.21041100  0.87454262     0.16900
O530        O  0.01226725  0.18166623  0.83378300    -0.60100
H531        H  0.10789831  0.24576411  0.90855532     0.16900
O532        O  0.08508944  0.26696689  0.97647511    -0.60200
H533        H  0.10556997  0.28409522  0.96293487     0.43900
H534        H  0.50677707  0.15882042  0.85739114     0.43800
C535        C  0.13619271  0.13149140  0.02704095    -0.05200
C536        C  0.14613266  0.15571294  0.06134934    -0.32700
C537        C  0.17146279  0.18535360  0.04947136     0.36600
C538        C  0.18567004  0.19094041  0.00183652    -0.05600
C539        C  0.17301101  0.16766237  0.96560248    -0.32600
C540        C  0.14882229  0.13766053  0.97831708     0.36500
H541        H  0.13488962  0.15120513  0.09767814     0.16900
O542        O  0.18245815  0.20876662  0.08417716    -0.60100
H543        H  0.18393671  0.17217488  0.92895241     0.16900
O544        O  0.13839868  0.11436232  0.94351821    -0.60200
H545        H  0.11831315  0.11211228  0.93092887     0.43900
H546        H  0.19093519  0.20184231  0.11153429     0.43800
C547        C  0.36030455  0.36370371  0.98278463    -0.05200
C548        C  0.36218752  0.33773420  0.96631797    -0.32700
C549        C  0.33485811  0.30812545  0.96474944     0.36600
C550        C  0.30540407  0.30442666  0.98017586    -0.05600
C551        C  0.30372751  0.33035702  0.99703040    -0.32600
C552        C  0.33085202  0.35973231  0.99869677     0.36500
H553        H  0.38486713  0.34034958  0.95504316     0.16900
O554        O  0.33711114  0.28288872  0.94915841    -0.60100
H555        H  0.28128223  0.32755634  0.01017554     0.16900
O556        O  0.32861877  0.38407412  0.01862866    -0.60200
H557        H  0.33231889  0.38360913  0.05471563     0.43900
H558        H  0.34260823  0.28643391  0.91320692     0.43800
C559        C  0.25579681  0.29531634  0.91426710    -0.05200
C560        C  0.24197061  0.31434552  0.91791346    -0.32700
C561        C  0.25472493  0.34278069  0.89049185     0.36600
C562        C  0.28379585  0.35436912  0.86342233    -0.05600
C563        C  0.29524903  0.33333451  0.85699407    -0.32600
C564        C  0.28040472  0.30376664  0.87904202     0.36500
H565        H  0.22184925  0.30765308  0.94282551     0.16900
O566        O  0.23827692  0.35845777  0.88994030    -0.60100
H567        H  0.31690720  0.33987870  0.83637815     0.16900
O568        O  0.29249452  0.28446139  0.86998023    -0.60200
H569        H  0.28095589  0.27201256  0.84065453     0.43900
H570        H  0.21975895  0.34590215  0.86851517     0.43800
C571        C  0.18981585  0.23923745  0.93647174    -0.05200
C572        C  0.16273132  0.23139526  0.96643988    -0.32700
C573        C  0.13210976  0.21471742  0.94670295     0.36600
C574        C  0.12849392  0.20958797  0.89525269    -0.05600
C575        C  0.15580384  0.22221717  0.86436523    -0.32600
C576        C  0.18622114  0.23585191  0.88460051     0.36500
H577        H  0.16509033  0.23450446  0.00631242     0.16900
O578        O  0.10602936  0.20130270  0.97805134    -0.60100
H579        H  0.15331595  0.21801546  0.82465918     0.16900
O580        O  0.21151242  0.24177819  0.85409938    -0.60200
H581        H  0.21505514  0.25952845  0.83252906     0.43900
H582        H  0.10480722  0.21895526  0.99316031     0.43800
C583        C  0.30586382  0.99806664  0.99803246    -0.05200
C584        C  0.30489193  0.47604545  0.04152772    -0.32700
C585        C  0.33361052  0.47769995  0.05180511     0.36600
C586        C  0.36430830  0.00528941  0.02110638    -0.05600
C587        C  0.36228978  0.02353510  0.98326904    -0.32600
C588        C  0.33296430  0.01973117  0.97118169     0.36500
H589        H  0.28355498  0.45950050  0.06177352     0.16900
O590        O  0.33441278  0.45787448  0.08646237    -0.60100
H591        H  0.38326070  0.03988152  0.96199500     0.16900
O592        O  0.33070923  0.03674169  0.93287666    -0.60200
H593        H  0.34048141  0.05851989  0.94523028     0.43900
H594        H  0.32949638  0.43865616  0.06795045     0.51300
C595        C  0.18760833  0.99263705  0.97165387    -0.05200
C596        C  0.16811289  0.49028764  0.02575390    -0.32700
C597        C  0.13928062  0.48930958  0.02231068     0.36600
C598        C  0.12853675  0.98826896  0.97200711    -0.05600
C599        C  0.15059361  0.00506676  0.93417107    -0.32600
C600        C  0.17956666  0.00577844  0.93217180     0.36500
H601        H  0.17498710  0.48511182  0.06101223     0.16900
O602        O  0.12009034  0.48215673  0.06382320    -0.60100
H603        H  0.14563728  0.01785010  0.90666919     0.16900
O604        O  0.20091172  0.02137945  0.89406424    -0.60200
H605        H  0.18953463  0.01178300  0.86283424     0.43900
H606        H  0.10545187  0.45919707  0.06253065     0.43800
C607        C  0.19304126  0.44876628  0.93680011    -0.05200
C608        C  0.19346142  0.45002630  0.88476910    -0.32700
C609        C  0.16516624  0.43653152  0.85802614     0.36600
C610        C  0.13534520  0.42220098  0.88299725    -0.05600
C611        C  0.13474017  0.41873305  0.93493145    -0.32600
C612        C  0.16326283  0.43029267  0.96134502     0.36500
H613        H  0.21540777  0.46452916  0.86480649     0.16900
O614        O  0.16691174  0.44094242  0.80756756    -0.60100
H615        H  0.11223965  0.40796233  0.95511341     0.16900
O616        O  0.16172453  0.42684363  0.01204712    -0.60200
H617        H  0.16946017  0.41212209  0.01872818     0.43900
H618        H  0.17062090  0.42450425  0.79377660     0.43800
C619        C  0.25740658  0.45244232  0.93884082    -0.05200
C620        C  0.25848750  0.42772194  0.96271463    -0.32700
C621        C  0.27565729  0.41439006  0.94159290     0.36600
C622        C  0.28874052  0.42289509  0.89316198    -0.05600
C623        C  0.28503937  0.44571691  0.86775030    -0.32600
C624        C  0.27103108  0.46141289  0.89086321     0.36500
H625        H  0.24890390  0.42104384  0.00015785     0.16900
O626        O  0.28059055  0.39408794  0.96929243    -0.60100
H627        H  0.29621609  0.45382417  0.83147798     0.16900
O628        O  0.27454499  0.48811624  0.86923303    -0.60200
H629        H  0.26551616  0.48205977  0.83560748     0.43900
H630        H  0.29376402  0.40662921  0.99734873     0.43800
C631        C  0.44693868  0.25482692  0.04336658    -0.05200
C632        C  0.44692854  0.25799535  0.09522433    -0.32700
C633        C  0.43035910  0.27091012  0.11890431     0.36600
C634        C  0.41663562  0.28490858  0.09079898    -0.05600
C635        C  0.41458525  0.28011984  0.03913517    -0.32600
C636        C  0.42787002  0.26349458  0.01599763     0.36500
H637        H  0.46196560  0.25328915  0.11772401     0.16900
O638        O  0.43070599  0.27288962  0.16977051    -0.60100
H639        H  0.40379092  0.29022892  0.01655473     0.16900
O640        O  0.42526057  0.25909408  0.96558246    -0.60200
H641        H  0.40514576  0.23904535  0.96105068     0.43900
H642        H  0.41480319  0.25163841  0.18170259     0.43800
C643        C  0.35111826  0.28506816  0.11261008    -0.05200
C644        C  0.34291981  0.25739466  0.08602270    -0.32700
C645        C  0.31696743  0.24442719  0.05355079     0.36600
C646        C  0.29701527  0.25728214  0.05129462    -0.05600
C647        C  0.30213436  0.28133483  0.08357299    -0.32600
C648        C  0.32968310  0.29666606  0.11091600     0.36500
H649        H  0.35707691  0.24632693  0.08852948     0.16900
O650        O  0.31183044  0.21991815  0.02354963    -0.60100
H651        H  0.28642105  0.29089658  0.08301641     0.16900
O652        O  0.33707540  0.32520988  0.13017613    -0.60200
H653        H  0.32069434  0.32081451  0.15631623     0.43900
H654        H  0.32783249  0.22931958  0.99620599     0.43800
C655        C  0.33948647  0.47748062  0.33878156    -0.05200
C656        C  0.35182062  0.99884613  0.36929863    -0.32700
C657        C  0.34823380  0.02461105  0.38080051     0.36600
C658        C  0.32426193  0.02802747  0.35791914    -0.05600
C659        C  0.30578920  0.00653481  0.32147488    -0.32600
C660        C  0.31977240  0.48626661  0.31436466     0.36500
H661        H  0.36896668  0.99543982  0.38934453     0.16900
O662        O  0.36749361  0.04560436  0.41565920    -0.60100
H663        H  0.28794961  0.00922390  0.30214708     0.16900
O664        O  0.30095330  0.46890374  0.27599812    -0.60200
H665        H  0.30626135  0.48364876  0.24774486     0.43900
H666        H  0.38750323  0.06001132  0.39752995     0.43800
C667        C  0.33339468  0.35828844  0.32076389    -0.05200
C668        C  0.34895908  0.35113982  0.35717588    -0.32700
C669        C  0.35491862  0.32671633  0.34987626     0.36600
C670        C  0.34309783  0.30768013  0.30745308    -0.05600
C671        C  0.32492902  0.31308461  0.27348387    -0.32600
C672        C  0.32121844  0.33914571  0.27867595     0.36500
H673        H  0.35860100  0.36605310  0.38935379     0.16900
O674        O  0.37293046  0.32218232  0.38387066    -0.60100
H675        H  0.31487425  0.29792660  0.24169991     0.16900
O676        O  0.30750676  0.34704494  0.24142093    -0.60200
H677        H  0.28697422  0.32798383  0.23426484     0.43900
H678        H  0.35865386  0.30118258  0.39836900     0.43800
C679        C  0.25919137  0.45388297  0.44198309    -0.05200
C680        C  0.25183356  0.44465454  0.39205241    -0.32700
C681        C  0.26453765  0.42797300  0.36728479     0.36600
C682        C  0.28876169  0.42447005  0.38932585    -0.05600
C683        C  0.29467970  0.43198216  0.43973157    -0.32600
C684        C  0.27850327  0.44429269  0.46670018     0.36500
H685        H  0.23716297  0.45121382  0.37152411     0.16900
O686        O  0.25518380  0.41765591  0.31983863    -0.60100
H687        H  0.31333780  0.43023977  0.45791497     0.16900
O688        O  0.28300165  0.44854922  0.51713098    -0.60200
H689        H  0.30617276  0.46247251  0.52173663     0.43900
H690        H  0.24080140  0.39474918  0.32311471     0.43800
C691        C  0.26435395  0.30543325  0.43924505    -0.05200
C692        C  0.25790232  0.30553326  0.38848866    -0.32700
C693        C  0.26770700  0.33378485  0.36281217     0.36600
C694        C  0.28839598  0.36271042  0.38550018    -0.05600
C695        C  0.29267639  0.36259191  0.43688334    -0.32600
C696        C  0.27865843  0.33450496  0.46399816     0.36500
H697        H  0.24599451  0.28391881  0.36826369     0.16900
O698        O  0.25942628  0.33280502  0.31415800    -0.60100
H699        H  0.30844537  0.38393617  0.45593508     0.16900
O700        O  0.28042790  0.33575968  0.51473748    -0.60200
H701        H  0.25882108  0.33009932  0.52679587     0.43900
H702        H  0.24336502  0.33946974  0.31441731     0.43800
C703        C  0.38161155  0.40910830  0.26522320    -0.05200
C704        C  0.40168294  0.40076287  0.29003025    -0.32700
C705        C  0.41309277  0.38256719  0.26658362     0.36600
C706        C  0.40769164  0.37539127  0.21567781    -0.05600
C707        C  0.39150017  0.38761011  0.18936742    -0.32600
C708        C  0.37795635  0.40353740  0.21362082     0.36500
H709        H  0.40504235  0.40481362  0.32962871     0.16900
O710        O  0.42662550  0.36934768  0.29461920    -0.60100
H711        H  0.38688313  0.38235331  0.15022234     0.16900
O712        O  0.35813192  0.41016087  0.18754571    -0.60200
H713        H  0.37223593  0.42746875  0.16458707     0.43900
H714        H  0.44526801  0.38699064  0.31059922     0.43800
C715        C  0.15658978  0.46505089  0.28274541    -0.05200
C716        C  0.18383063  0.47037870  0.30810200    -0.32700
C717        C  0.17065416  0.03148261  0.31825559     0.36600
C718        C  0.19432178  0.03414311  0.28486282    -0.05600
C719        C  0.19166519  0.00698350  0.26353647    -0.32600
C720        C  0.16346081  0.48645780  0.24316003     0.36500
H721        H  0.18531266  0.45192556  0.32613270     0.16900
O722        O  0.17345205  0.05729793  0.34202909    -0.60100
H723        H  0.21019079  0.00866199  0.23868015     0.16900
O724        O  0.14726509  0.47700821  0.19955248    -0.60200
H725        H  0.17329509  0.94396693  0.27316465     0.43900
H726        H  0.24726994  0.49913471  0.32405200     0.43800
C727        C  0.02750549  0.36205788  0.32547388    -0.05200
C728        C  0.01624855  0.33540072  0.29579631    -0.32700
C729        C  0.48447049  0.30200499  0.32435192     0.36600
C730        C  0.46742821  0.30104150  0.36758115    -0.05600
C731        C  0.47513339  0.32887585  0.39227417    -0.32600
C732        C  0.00934732  0.36176641  0.36700421     0.36500
H733        H  0.03001484  0.33536034  0.26381290     0.16900
O734        O  0.47664694  0.27520185  0.29847684    -0.60100
H735        H  0.46133405  0.32844760  0.42457655     0.16900
O736        O  0.01961623  0.38798272  0.39566067    -0.60200
H737        H  0.52053421  0.38274992  0.43253133     0.43900
H738        H  0.46058312  0.27310600  0.27418049     0.43800
C739        C  0.07945852  0.36089682  0.37103145    -0.05200
C740        C  0.06970460  0.33246540  0.34586958    -0.32700
C741        C  0.05335918  0.30342344  0.37099224     0.36600
C742        C  0.04998413  0.30252472  0.42309784    -0.05600
C743        C  0.06299293  0.33115525  0.44873373    -0.32600
C744        C  0.07657347  0.35996923  0.42325263     0.36500
H745        H  0.07193457  0.33261918  0.30574130     0.16900
O746        O  0.53540626  0.27666350  0.35579680    -0.60100
H747        H  0.06032232  0.33099648  0.48878423     0.16900
O748        O  0.08417664  0.38662857  0.44932347    -0.60200
H749        H  0.10264804  0.39075712  0.46985545     0.43900
H750        H  0.55256436  0.27667609  0.33557257     0.43800
C751        C  0.19292574  0.45772431  0.44290205    -0.05200
C752        C  0.18254042  0.42678331  0.42677056    -0.32700
C753        C  0.15652087  0.41109943  0.39382078     0.36600
C754        C  0.13868560  0.42528194  0.38009115    -0.05600
C755        C  0.14523868  0.45279483  0.40397943    -0.32600
C756        C  0.17307771  0.47017045  0.43028402     0.36500
H757        H  0.19523151  0.41513719  0.43764939     0.16900
O758        O  0.15074049  0.38370874  0.37198663    -0.60100
H759        H  0.13094529  0.46326816  0.39622280     0.16900
O760        O  0.18857583  0.00864238  0.43574691    -0.60200
H761        H  0.20311528  0.01803627  0.40660619     0.43900
H762        H  0.14150447  0.36769947  0.39879757     0.43800
C763        C  0.03815082  0.40807894  0.25130534    -0.05200
C764        C  0.52270260  0.37737474  0.22049343    -0.32700
C765        C  0.49436828  0.36185869  0.19503284     0.36600
C766        C  0.47333169  0.37397549  0.19381433    -0.05600
C767        C  0.98785897  0.40523901  0.23201402    -0.32600
C768        C  0.01587309  0.41768690  0.26037316     0.36500
H769        H  0.53883638  0.36833974  0.21869445     0.16900
O770        O  0.48667782  0.33342158  0.17518108    -0.60100
H771        H  0.97212284  0.41415202  0.23915096     0.16900
O772        O  0.02055817  0.43818729  0.29805104    -0.60200
H773        H  0.03011324  0.45899577  0.28173284     0.43900
H774        H  0.48062608  0.31897737  0.20408017     0.43800
C775        C  0.41936529  0.13855653  0.10538177    -0.05200
C776        C  0.43722387  0.16794435  0.12852754    -0.32700
C777        C  0.45609313  0.19521594  0.10012069     0.36600
C778        C  0.45078556  0.19519416  0.04883462    -0.05600
C779        C  0.42942995  0.16670182  0.02671853    -0.32600
C780        C  0.41810612  0.13838069  0.05289633     0.36500
H781        H  0.44019399  0.16917008  0.16843806     0.16900
O782        O  0.48280121  0.21980291  0.12049593    -0.60100
H783        H  0.42507531  0.16620872  0.98749390     0.16900
O784        O  0.40879239  0.11108569  0.02706450    -0.60200
H785        H  0.39609855  0.11094095  0.99851648     0.43900
H786        H  0.47754741  0.22183859  0.15562738     0.43800
C787        C  0.35119906  0.07103628  0.10794254    -0.05200
C788        C  0.34481594  0.08657666  0.06978956    -0.32700
C789        C  0.31686074  0.07073120  0.04181792     0.36600
C790        C  0.29405406  0.03963081  0.05371516    -0.05600
C791        C  0.29681594  0.02734583  0.09894004    -0.32600
C792        C  0.32436315  0.04347357  0.12700152     0.36500
H793        H  0.36086248  0.11046100  0.06024489     0.16900
O794        O  0.31311505  0.08507810  0.00110372    -0.60100
H795        H  0.28062391  0.50481138  0.11785167     0.16900
O796        O  0.32530784  0.03134542  0.17225161    -0.60200
H797        H  0.32611648  0.54406751  0.20278736     0.43900
H798        H  0.30229201  0.09614589  0.01404538     0.43800
C799        C  0.37572576  0.46744438  0.25840397    -0.05200
C800        C  0.40875683  0.48838127  0.25739154    -0.32700
C801        C  0.41991158  0.01516551  0.22580853     0.36600
C802        C  0.40014199  0.02255592  0.19739505    -0.05600
C803        C  0.36772823  0.99834962  0.19530326    -0.32600
C804        C  0.35773566  0.47023475  0.22127526     0.36500
H805        H  0.42384904  0.48468792  0.28222775     0.16900
O806        O  0.45216919  0.03111341  0.21879045    -0.60100
H807        H  0.35031983  0.99967752  0.17333540     0.16900
O808        O  0.32676572  0.44698377  0.21465646    -0.60200
H809        H  0.32493743  0.93987082  0.18035639     0.43900
H810        H  0.45917549  0.51590581  0.19479685     0.43800
C811        C  0.24003526  0.19273240  0.04302624    -0.05200
C812        C  0.24143076  0.19190590  0.09517000    -0.32700
C813        C  0.22767079  0.16302831  0.12088979     0.36600
C814        C  0.20889966  0.13456434  0.09543191    -0.05600
C815        C  0.20901783  0.13606571  0.04332948    -0.32600
C816        C  0.22780117  0.16420228  0.01755728     0.36500
H817        H  0.25151148  0.21338098  0.11623282     0.16900
O818        O  0.23075404  0.16302898  0.17131301    -0.60100
H819        H  0.19212898  0.11657363  0.02203493     0.16900
O820        O  0.22961755  0.16383302  0.96665104    -0.60200
H821        H  0.25140337  0.16801415  0.95887863     0.43900
H822        H  0.25069863  0.16269253  0.17637988     0.43800
C823        C  0.23409935  0.03962815  0.03835851    -0.05200
C824        C  0.23380437  0.03900652  0.09059202    -0.32700
C825        C  0.22330975  0.05620382  0.11821948     0.36600
C826        C  0.20808928  0.07037845  0.09439242    -0.05600
C827        C  0.20820663  0.07041494  0.04223914    -0.32600
C828        C  0.22451366  0.05875666  0.01491107     0.36500
H829        H  0.24067460  0.02442634  0.11031665     0.16900
O830        O  0.22483216  0.05610346  0.16895524    -0.60100
H831        H  0.19339436  0.07641158  0.02182357     0.16900
O832        O  0.22918530  0.06463123  0.96489823    -0.60200
H833        H  0.25062735  0.08343729  0.96143695     0.43900
H834        H  0.24497060  0.07540148  0.17692349     0.43800
C835        C  0.09827602  0.47107772  0.26154353    -0.05200
C836        C  0.08970424  0.47396958  0.21275355    -0.32700
C837        C  0.10152326  0.50363033  0.19055256     0.36600
C838        C  0.11210925  0.02061216  0.20095354    -0.05600
C839        C  0.09957450  0.01826750  0.24924862    -0.32600
C840        C  0.08563835  0.98990769  0.27614495     0.36500
H841        H  0.07732896  0.45354202  0.18955731     0.16900
O842        O  0.09698837  0.50551684  0.14086067    -0.60100
H843        H  0.10211047  0.03832177  0.26824755     0.16900
O844        O  0.07528757  0.98896892  0.32426537    -0.60200
H845        H  0.05888738  0.99519554  0.32271023     0.43900
H846        H  0.08750676  0.51908252  0.13833169     0.43800
C847        C  0.15199855  0.19162982  0.26546688    -0.05200
C848        C  0.17968730  0.21890485  0.28019782    -0.32700
C849        C  0.20779735  0.21796733  0.28482343     0.36600
C850        C  0.20760397  0.19001514  0.27252871    -0.05600
C851        C  0.18333996  0.16872169  0.24211924    -0.32600
C852        C  0.15757719  0.17269221  0.23320167     0.36500
H853        H  0.17872337  0.23887964  0.29437187     0.16900
O854        O  0.23375842  0.24290921  0.30540391    -0.60100
H855        H  0.18472511  0.14984071  0.22476155     0.16900
O856        O  0.14221906  0.16319964  0.18901749    -0.60200
H857        H  0.14475070  0.18227089  0.17267340     0.43900
H858        H  0.24588262  0.25672311  0.27693577     0.43800
C859        C  0.46805775  0.16497036  0.34711903    -0.05200
C860        C  0.48985538  0.18937119  0.31608576    -0.32700
C861        C  0.02668347  0.19572873  0.30481480     0.36600
C862        C  0.03211071  0.17378806  0.32883347    -0.05600
C863        C  0.00926840  0.15165820  0.36146573    -0.32600
C864        C  0.47593495  0.14421892  0.36892280     0.36500
H865        H  0.48383774  0.20567676  0.29974021     0.16900
O866        O  0.04968986  0.21838460  0.27451341    -0.60100
H867        H  0.01382830  0.13527856  0.38100335     0.16900
O868        O  0.45503079  0.12072812  0.40028985    -0.60200
H869        H  0.46354974  0.12752611  0.43414351     0.43900
H870        H  0.04011703  0.21513226  0.24124087     0.43800
C871        C  0.08518100  0.21307514  0.38806098    -0.05200
C872        C  0.09372417  0.24450913  0.38095887    -0.32700
C873        C  0.08308193  0.25952623  0.41422184     0.36600
C874        C  0.05817414  0.24170089  0.44910145    -0.05600
C875        C  0.05137711  0.21050775  0.45722508    -0.32600
C876        C  0.06640037  0.19738398  0.42987829     0.36500
H877        H  0.10894764  0.25758737  0.34973239     0.16900
O878        O  0.09855197  0.29148918  0.41344332    -0.60100
H879        H  0.52693330  0.19135874  0.48040984     0.16900
O880        O  0.05942244  0.16750685  0.44071707    -0.60200
H881        H  0.57185391  0.16883208  0.45753685     0.43900
H882        H  0.11193921  0.29819339  0.44344799     0.43800
C883        C  0.20435057  0.23569266  0.42580012    -0.05200
C884        C  0.19048609  0.20594528  0.40357214    -0.32700
C885        C  0.16047134  0.19182067  0.38226401     0.36600
C886        C  0.14566127  0.20931098  0.37206071    -0.05600
C887        C  0.15981309  0.23975255  0.39248345    -0.32600
C888        C  0.18734980  0.25187048  0.42203687     0.36500
H889        H  0.20249063  0.19256341  0.40365983     0.16900
O890        O  0.14599718  0.16076687  0.37034095    -0.60100
H891        H  0.15022716  0.25467623  0.38539950     0.16900
O892        O  0.19697119  0.27929377  0.44701079    -0.60200
H893        H  0.18960823  0.27298972  0.48188587     0.43900
H894        H  0.16108019  0.15832814  0.34823734     0.43800
C895        C  0.03106543  0.12913810  0.26018437    -0.05200
C896        C  0.00476199  0.10480328  0.28609536    -0.32700
C897        C  0.47129267  0.08901687  0.25807478     0.36600
C898        C  0.46736190  0.09374222  0.20747060    -0.05600
C899        C  0.49495749  0.11543179  0.18044175    -0.32600
C900        C  0.02573230  0.13693085  0.21256524     0.36500
H901        H  0.00782766  0.09863343  0.32329954     0.16900
O902        O  0.44510293  0.07207330  0.28843655    -0.60100
H903        H  0.49297784  0.12054211  0.14191777     0.16900
O904        O  0.04898198  0.16323705  0.18865047    -0.60200
H905        H  0.04056332  0.17770436  0.18662362     0.43900
H906        H  0.44898863  0.05708253  0.30706627     0.43800
C907        C  0.09175940  0.12470866  0.25373969    -0.05200
C908        C  0.10672911  0.11220828  0.28236698    -0.32700
C909        C  0.12066588  0.09604653  0.26012564     0.36600
C910        C  0.11524886  0.08741157  0.20964929    -0.05600
C911        C  0.09520917  0.09479296  0.18357036    -0.32600
C912        C  0.08397684  0.11367860  0.20429646     0.36500
H913        H  0.11090238  0.11814607  0.32102918     0.16900
O914        O  0.14296751  0.09269998  0.28580680    -0.60100
H915        H  0.09251776  0.09018955  0.14427661     0.16900
O916        O  0.07244892  0.12679769  0.17229870    -0.60200
H917        H  0.05309508  0.10911562  0.15792836     0.43900
H918        H  0.13266346  0.08234039  0.31782655     0.43800
C919        C  0.12186160  0.68308222  0.30014505     0.02500
C920        C  0.09343039  0.65756503  0.27819511     0.02500
C921        C  0.06382705  0.65610936  0.28660744     0.02500
C922        C  0.06201254  0.67689370  0.32127180     0.02500
C923        C  0.08837067  0.69793964  0.34994596     0.02500
C924        C  0.11802994  0.70002656  0.34122013     0.02500
C925        C  0.14241416  0.58781523  0.18819640     0.02500
C926        C  0.14409937  0.56008785  0.18784498     0.02500
C927        C  0.16648289  0.55858083  0.15577698    -0.18000
C928        C  0.18925336  0.58422732  0.12713952     0.02500
C929        C  0.18879257  0.61281226  0.12885221     0.02500
C930        C  0.16436818  0.61305085  0.15756183    -0.18000
H931        H  0.16225231  0.63360636  0.15515451     0.04500
H932        H  0.16607076  0.53653840  0.15270857     0.04500
C933        C  0.43774014  0.58401384  0.18648612     0.02500
C934        C  0.41267205  0.55365937  0.17134520     0.02500
C935        C  0.39090955  0.55392708  0.13703292    -0.18000
C936        C  0.38666479  0.57973543  0.12892892     0.02500
C937        C  0.41272567  0.60967793  0.14036531     0.02500
C938        C  0.43658239  0.61074723  0.17074826    -0.18000
H939        H  0.45658689  0.63342445  0.17973682     0.04500
H940        H  0.37480521  0.53284756  0.11779332     0.04500
C941        C  0.11154468  0.94424926  0.31684103     0.02500
C942        C  0.08425840  0.93857896  0.28964926     0.02500
C943        C  0.05611874  0.90941234  0.29419387     0.02500
C944        C  0.05487327  0.88666145  0.32791104     0.02500
C945        C  0.08215445  0.89143095  0.35450693     0.02500
C946        C  0.11063030  0.92126283  0.35099148     0.02500
C947        C  0.33379879  0.89048990  0.33058081     0.02500
C948        C  0.35722740  0.91620107  0.30189196     0.02500
C949        C  0.35561984  0.94406282  0.30000147     0.02500
C950        C  0.33241006  0.94658089  0.33021476     0.02500
C951        C  0.30978159  0.92102319  0.36036642     0.02500
C952        C  0.31028215  0.89260273  0.35993527     0.02500
C953        C  0.41270790  0.85442733  0.19878567     0.02500
C954        C  0.44172951  0.85642828  0.18246114     0.02500
C955        C  0.43968090  0.83716770  0.14205077    -0.18000
C956        C  0.41100435  0.81264779  0.12380107     0.02500
C957        C  0.38214772  0.81049351  0.14016246     0.02500
C958        C  0.38381983  0.82992670  0.18009177    -0.18000
H959        H  0.36195875  0.82756050  0.19502877     0.04500
H960        H  0.46114986  0.83973027  0.12581774     0.04500
C961        C  0.21813244  0.49796092  0.98859337     0.02500
C962        C  0.24254961  0.52121584  0.01885411     0.02500
C963        C  0.27015376  0.51933584  0.02583936     0.02500
C964        C  0.27395676  0.49635690  0.99985477     0.02500
C965        C  0.25361296  0.97477023  0.95664657     0.02500
C966        C  0.22499812  0.97447361  0.94898340     0.02500
C967        C  0.21443428  0.72376574  0.99365255     0.02500
C968        C  0.24167974  0.72763090  0.01875815     0.02500
C969        C  0.27024659  0.75630085  0.01433863     0.02500
C970        C  0.27254657  0.77831260  0.97805696     0.02500
C971        C  0.24619577  0.77305691  0.94875843     0.02500
C972        C  0.21613690  0.74637186  0.95908725     0.02500
C973        C  0.98521585  0.77202163  0.98844845     0.02500
C974        C  0.46826275  0.75169383  0.02366199     0.02500
C975        C  0.46925871  0.72352466  0.02503929     0.02500
C976        C  0.98655786  0.71660539  0.98831961     0.02500
C977        C  0.00805014  0.74138627  0.95634100     0.02500
C978        C  0.00854357  0.77016815  0.95790919     0.02500
C979        C  0.17292460  0.61558673  0.67168594     0.02500
C980        C  0.19513320  0.61416501  0.63804580     0.02500
C981        C  0.19731819  0.58687944  0.63716343     0.02500
C982        C  0.17723494  0.56165681  0.66934364     0.02500
C983        C  0.15296059  0.56198615  0.69961422     0.02500
C984        C  0.15191220  0.58989144  0.70281702     0.02500
C985        C  0.09559088  0.68418951  0.86960017     0.02500
C986        C  0.07446042  0.69039983  0.84308188     0.02500
C987        C  0.06130815  0.67272962  0.79971960    -0.18000
C988        C  0.06311332  0.64579425  0.78813887     0.02500
C989        C  0.08413215  0.63945996  0.81514644     0.02500
C990        C  0.09695598  0.65699032  0.85874978    -0.18000
H991        H  0.11183530  0.65194042  0.88182359     0.04500
H992        H  0.04614219  0.67763317  0.77712900     0.04500
C993        C  0.07912499  0.88533856  0.84789120     0.02500
C994        C  0.10858097  0.91431032  0.84843207     0.02500
C995        C  0.10872325  0.94065379  0.82775185    -0.18000
C996        C  0.08286558  0.93920566  0.80262113     0.02500
C997        C  0.05387103  0.91009689  0.80073546     0.02500
C998        C  0.05345431  0.88385251  0.82202383    -0.18000
H999        H  0.03171630  0.86137537  0.82016850     0.04500
H1000       H  0.13006513  0.96338228  0.83046044     0.04500
C1001       C  0.38885701  0.55635429  0.67856654     0.02500
C1002       C  0.41474469  0.56003855  0.70779155     0.02500
C1003       C  0.44461875  0.58708431  0.70137776     0.02500
C1004       C  0.44732888  0.61132197  0.67002863     0.02500
C1005       C  0.42181429  0.60822831  0.64071218     0.02500
C1006       C  0.39228935  0.57941866  0.64286096     0.02500
C1007       C  0.44717016  0.82890000  0.68196638     0.02500
C1008       C  0.44140441  0.85048901  0.70884312     0.02500
C1009       C  0.41303330  0.85037294  0.70199230     0.02500
C1010       C  0.38930815  0.82641840  0.67279603     0.02500
C1011       C  0.39433726  0.80460601  0.64518554     0.02500
C1012       C  0.42468094  0.80693261  0.64729813     0.02500
C1013       C  0.31397994  0.91362524  0.86303543     0.02500
C1014       C  0.30460917  0.88662722  0.83340733     0.02500
C1015       C  0.32477766  0.88994289  0.79264164    -0.18000
C1016       C  0.35540081  0.91638189  0.78581899     0.02500
C1017       C  0.36430750  0.94380436  0.81443479     0.02500
C1018       C  0.34471973  0.93984217  0.85643141    -0.18000
H1019       H  0.35149545  0.95901685  0.88197901     0.04500
H1020       H  0.31847015  0.86990257  0.76909008     0.04500
C1021       C  0.02711503  0.77511622  0.46328095     0.02500
C1022       C  0.03390175  0.75201561  0.48225322     0.02500
C1023       C  0.01348846  0.73250322  0.52136665    -0.18000
C1024       C  0.48922171  0.72666073  0.53627225     0.02500
C1025       C  0.48408399  0.75148827  0.52227280     0.02500
C1026       C  0.99846633  0.77354859  0.47849197    -0.18000
H1027       H  0.99264249  0.78959463  0.46079482     0.04500
H1028       H  0.01868974  0.71631272  0.53964219     0.04500
C1029       C  0.25739453  0.77855360  0.47192920     0.02500
C1030       C  0.23245236  0.74732301  0.46058826     0.02500
C1031       C  0.23944378  0.72368396  0.47261100    -0.18000
C1032       C  0.25781172  0.72613231  0.51369905     0.02500
C1033       C  0.28267355  0.75635163  0.52624529     0.02500
C1034       C  0.28254949  0.78201221  0.50311665    -0.18000
H1035       H  0.30287233  0.80506917  0.50899057     0.04500
H1036       H  0.22710580  0.70091248  0.45589112     0.04500
C1037       C  0.25439729  0.98189602  0.47038747     0.02500
C1038       C  0.22498995  0.98188407  0.47487885     0.02500
C1039       C  0.22331009  0.50035826  0.50472473    -0.18000
C1040       C  0.25083695  0.52731154  0.52251440     0.02500
C1041       C  0.27979417  0.52662660  0.51876528     0.02500
C1042       C  0.28027386  0.50325212  0.48904086    -0.18000
H1043       H  0.30271739  0.50389698  0.48463726     0.04500
H1044       H  0.20048265  0.49710511  0.51629818     0.04500
O1045       O  0.46300223  0.51651412  0.98453074    -0.88100
C1046       C  0.02853647  0.54953776  0.11680760     0.87900
Mg1047     Mg  0.42801190  0.96985063  0.98243719     1.58100
O1048       O  0.04795093  0.54033824  0.99462001    -0.87800
O1049       O  0.99646473  0.55677591  0.96459868    -0.75200
C1050       C  0.49043057  0.88838531  0.04719984     0.93000
O1051       O  0.44815362  0.49607898  0.10121509    -0.75000
O1052       O  0.46326734  0.88573065  0.04548986    -0.82500
Mg1053     Mg  0.46573133  0.54007249  0.05245586     1.58000
C1054       C  0.10113963  0.49686176  0.97533027     0.92900
O1055       O  0.47963693  0.58580006  0.01247020    -0.80800
H1056       H  0.05768902  0.55577645  0.92424550    -0.06100
C1057       C  0.02730315  0.96760931  0.09186742     0.87800
O1058       O  0.45719934  0.95467047  0.93511112    -0.75300
O1059       O  0.01554216  0.55235828  0.07961985    -0.88000
O1060       O  0.10170598  0.52190414  0.98737840    -0.80800
C1061       C  0.11020559  0.60446638  0.04675053     0.93000
C1062       C  0.00605209  0.61507919  0.03479466     0.92900
Mg1063     Mg  0.02518410  0.95618974  0.98090276     1.58000
O1064       O  0.01323360  0.91107785  0.01954602    -0.80800
O1065       O  0.04034889  0.00047123  0.93412513    -0.75000
O1066       O  0.08409283  0.60188721  0.06033359    -0.80800
O1067       O  0.41634327  0.52948273  0.04183380    -0.82600
O1068       O  0.41150491  0.89449324  0.00145467    -0.80900
C1069       C  0.04992144  0.53631345  0.94974198     0.87300
O1070       O  0.48432573  0.94764741  0.99191920    -0.88000
O1071       O  0.03591255  0.98027473  0.05056216    -0.88100
O1072       O  0.49155909  0.95086441  0.10984144    -0.75200
Mg1073     Mg  0.04055795  0.57777880  0.01399544     1.58000
O1074       O  0.11308054  0.58063686  0.04092753    -0.82500
H1075       H  0.45659048  0.52319379  0.91321211    -0.06300
O1076       O  0.44288895  0.96141903  0.05254905    -0.87800
H1077       H  0.42880889  0.95461036  0.12398877    -0.06100
H1078       H  0.48705852  0.93816877  0.92023596    -0.06300
C1079       C  0.43880013  0.97079605  0.09304582     0.87300
C1080       C  0.47263112  0.53025572  0.94415661     0.87900
C1081       C  0.47649933  0.94607123  0.94812987     0.87900
H1082       H  0.04444868  0.97425110  0.12106915    -0.06300
O1083       O  0.04948387  0.54143862  0.11324223    -0.75300
Mg1084     Mg  0.45254744  0.92439220  0.05209029     1.58000
H1085       H  0.02172659  0.55375791  0.15319149    -0.06300
C1086       C  0.39195692  0.50276364  0.03666259     0.92900
O1087       O  0.38806673  0.92132019  0.98047595    -0.82500
C1088       C  0.38779777  0.89579826  0.98572414     0.93000
O1089       O  0.03318275  0.61767759  0.03117695    -0.82500
Mg1090     Mg  0.07367661  0.53060934  0.04743698     1.58200
O1091       O  0.39462908  0.98138645  0.02305994    -0.80800
O1092       O  0.07350168  0.96393889  0.97580471    -0.82500
O1093       O  0.30630517  0.68324852  0.30436508    -0.88100
C1094       C  0.35268752  0.71813411  0.43703928     0.87900
Mg1095     Mg  0.26829662  0.63477542  0.29473109     1.58100
O1096       O  0.39395737  0.70806961  0.33892402    -0.87800
O1097       O  0.35020961  0.72150974  0.27181079    -0.75200
C1098       C  0.33293083  0.55768407  0.38374330     0.93000
O1099       O  0.27700351  0.66381687  0.41729294    -0.75000
O1100       O  0.30600120  0.55587484  0.38182353    -0.82500
Mg1101     Mg  0.30170288  0.70760410  0.36797800     1.58000
C1102       C  0.44595985  0.66655270  0.36282272     0.92900
O1103       O  0.32067269  0.75394002  0.32415408    -0.80800
H1104       H  0.40988906  0.71625370  0.26837256    -0.06100
C1105       C  0.35583655  0.64109588  0.44616270     0.87800
O1106       O  0.30235562  0.62063668  0.25974794    -0.75300
O1107       O  0.34710003  0.71764289  0.39222819    -0.88000
O1108       O  0.44473708  0.69093765  0.37325213    -0.80800
C1109       C  0.44449083  0.77480185  0.40151980     0.93000
C1110       C  0.34533666  0.78045024  0.33081600     0.92900
Mg1111     Mg  0.37403178  0.62865499  0.34363756     1.58000
O1112       O  0.35823695  0.58378354  0.38896743    -0.80800
O1113       O  0.39387833  0.67182990  0.29238506    -0.75000
O1114       O  0.41687171  0.77108748  0.40215240    -0.80800
O1115       O  0.25583855  0.69753730  0.34112967    -0.82600
O1116       O  0.25483578  0.56275684  0.32825100    -0.80900
C1117       C  0.39991181  0.69969518  0.29885159     0.87300
O1118       O  0.32711642  0.61910598  0.32547631    -0.88000
O1119       O  0.37183570  0.65332278  0.40794372    -0.88100
O1120       O  0.32659705  0.62007809  0.44455034    -0.75200
Mg1121     Mg  0.38327592  0.74478583  0.33896482     1.58000
O1122       O  0.44830942  0.75154107  0.40719181    -0.82500
H1123       H  0.31165521  0.69210990  0.23115330    -0.06300
O1124       O  0.27693826  0.62687037  0.37284240    -0.87800
H1125       H  0.25584420  0.61852087  0.43991308    -0.06100
H1126       H  0.33454634  0.60603881  0.25738350    -0.06300
C1127       C  0.26896426  0.63541782  0.41079421     0.87300
C1128       C  0.32204327  0.69846089  0.26758732     0.87900
C1129       C  0.32162052  0.61423361  0.27983586     0.87900
H1130       H  0.36680763  0.64903611  0.48195068    -0.06300
O1131       O  0.37445087  0.71323878  0.45210878    -0.75300
Mg1132     Mg  0.29127318  0.59272973  0.38222979     1.58000
H1133       H  0.33877552  0.72266413  0.46389822    -0.06300
C1134       C  0.23187990  0.67544406  0.32073846     0.92900
O1135       O  0.22990309  0.58171477  0.28480566    -0.82500
C1136       C  0.23317078  0.55872843  0.29878718     0.93000
O1137       O  0.37167306  0.78290839  0.34140724    -0.82500
Mg1138     Mg  0.40875924  0.70123350  0.40991497     1.58200
O1139       O  0.23006552  0.64923453  0.31100984    -0.80800
O1140       O  0.42167016  0.63975016  0.35975076    -0.82500
O1141       O  0.13313454  0.85234272  0.65304644    -0.88100
C1142       C  0.19757246  0.88904127  0.76297217     0.87900
Mg1143     Mg  0.09475220  0.80576988  0.65811848     1.58100
O1144       O  0.22188268  0.86974134  0.65093831    -0.87800
O1145       O  0.17200730  0.88358126  0.60310859    -0.75200
C1146       C  0.16070975  0.72366982  0.70083388     0.93000
O1147       O  0.12158446  0.83596099  0.77037707    -0.75000
O1148       O  0.13340736  0.72081612  0.70022281    -0.82500
Mg1149     Mg  0.13868215  0.87881085  0.71819976     1.58000
C1150       C  0.27255088  0.82476277  0.66335370     0.92900
O1151       O  0.15397391  0.92338309  0.67307106    -0.80800
H1152       H  0.23399384  0.87797233  0.57872294    -0.06100
C1153       C  0.19465390  0.80572677  0.76135260     0.87800
O1154       O  0.12081785  0.79087087  0.60181303    -0.75300
O1155       O  0.18586784  0.88730710  0.72183149    -0.88000
O1156       O  0.27334518  0.85062307  0.66675734    -0.80800
C1157       C  0.28309414  0.93698414  0.70419404     0.93000
C1158       C  0.18048838  0.94783603  0.66343150     0.92900
Mg1159     Mg  0.19915434  0.79153212  0.65514306     1.58000
O1160       O  0.18518867  0.75022179  0.70516997    -0.80800
O1161       O  0.21744788  0.83309645  0.60103399    -0.75000
O1162       O  0.25678410  0.93630408  0.70396992    -0.80800
O1163       O  0.08858157  0.86908955  0.71075603    -0.82600
O1164       O  0.08311501  0.73359325  0.66159416    -0.80900
C1165       C  0.22504409  0.86126197  0.60907488     0.87300
O1166       O  0.15297065  0.78442667  0.64944932    -0.88000
O1167       O  0.20461765  0.81823310  0.72019499    -0.88100
O1168       O  0.16586160  0.78425428  0.76773270    -0.75200
Mg1169     Mg  0.21410113  0.90785379  0.65604074     1.58000
O1170       O  0.28475023  0.91235577  0.70513558    -0.82500
H1171       H  0.12651686  0.85597899  0.58066358    -0.06300
O1172       O  0.11633074  0.79864481  0.72093226    -0.87800
H1173       H  0.10649969  0.79154943  0.79393982    -0.06100
H1174       H  0.15095716  0.77665428  0.57610401    -0.06300
C1175       C  0.11436103  0.80777135  0.76294405     0.87300
C1176       C  0.14290562  0.86369359  0.61119036     0.87900
C1177       C  0.14205219  0.78351198  0.60788953     0.87900
H1178       H  0.21066416  0.81304055  0.79227990    -0.06300
O1179       O  0.21856534  0.88135098  0.76887719    -0.75300
Mg1180     Mg  0.12446147  0.76057498  0.71247586     1.58000
H1181       H  0.18959266  0.89694129  0.79461184    -0.06300
C1182       C  0.06374750  0.84224635  0.71040170     0.92900
O1183       O  0.05464231  0.75712896  0.66384737    -0.82500
C1184       C  0.05685216  0.73286893  0.66005053     0.93000
O1185       O  0.20647028  0.94798943  0.66092064    -0.82500
Mg1186     Mg  0.24378465  0.86425667  0.71474573     1.58200
O1187       O  0.06526213  0.81748630  0.71041641    -0.80800
O1188       O  0.24698097  0.79886203  0.66279592    -0.82500
C1189       C  0.47831791  0.83128915  0.68949803    -0.05200
C1190       C  0.50568653  0.85782542  0.67117954    -0.32700
C1191       C  0.02833588  0.85616500  0.66704434     0.36600
C1192       C  0.03259197  0.83925267  0.70490986    -0.05600
C1193       C  0.00614885  0.81639751  0.73189232    -0.32600
C1194       C  0.48119278  0.81005090  0.72027408     0.36500
H1195       H  0.50364880  0.87436241  0.64749332     0.16900
O1196       O  0.05363238  0.87803005  0.63910939    -0.60100
H1197       H  0.00914785  0.80278542  0.76049061     0.16900
O1198       O  0.45469106  0.78407682  0.73891024    -0.60200
H1199       H  0.44976319  0.79084233  0.77093124     0.43900
H1200       H  0.05604900  0.86621451  0.61122815     0.43800
C1201       C  0.35877740  0.82510381  0.66980955    -0.05200
C1202       C  0.35311648  0.83886491  0.62891760    -0.32700
C1203       C  0.32554590  0.84040696  0.62754444     0.36600
C1204       C  0.30197046  0.82466992  0.66407418    -0.05600
C1205       C  0.30706166  0.80983123  0.70410352    -0.32600
C1206       C  0.33604519  0.81113109  0.70821868     0.36500
H1207       H  0.37077371  0.84963371  0.59936735     0.16900
O1208       O  0.32198650  0.85745496  0.59088643    -0.60100
H1209       H  0.28904833  0.79835461  0.73304424     0.16900
O1210       O  0.34168617  0.79788406  0.74866021    -0.60200
H1211       H  0.34584297  0.81260923  0.77642954     0.43900
H1212       H  0.33155052  0.87899821  0.60417718     0.43800
C1213       C  0.40721541  0.87478802  0.72528931    -0.05200
C1214       C  0.40207316  0.87460611  0.77677612    -0.32700
C1215       C  0.38875751  0.89164383  0.79734671     0.36600
C1216       C  0.37885680  0.90796679  0.76610738    -0.05600
C1217       C  0.38555488  0.90941041  0.71496097    -0.32600
C1218       C  0.40173496  0.89491582  0.69528452     0.36500
H1219       H  0.40650903  0.85973716  0.80076407     0.16900
O1220       O  0.38339812  0.89051302  0.84777945    -0.60100
H1221       H  0.37815883  0.92173299  0.69033637     0.16900
O1222       O  0.41016313  0.89879659  0.64585327    -0.60200
H1223       H  0.43206564  0.91702378  0.64436637     0.43900
H1224       H  0.36526789  0.86919546  0.85487193     0.43800
C1225       C  0.31171195  0.76237821  0.55477394    -0.05200
C1226       C  0.30982550  0.75286610  0.60451267    -0.32700
C1227       C  0.33758060  0.76121777  0.63150062     0.36600
C1228       C  0.36796961  0.78275046  0.61129426    -0.05600
C1229       C  0.36996288  0.79050995  0.56081379    -0.32600
C1230       C  0.34231760  0.77976418  0.53248590     0.36500
H1231       H  0.28687124  0.73958756  0.62300201     0.16900
O1232       O  0.33468392  0.75111756  0.67971608    -0.60100
H1233       H  0.39283772  0.80684286  0.54414365     0.16900
O1234       O  0.34533774  0.78822492  0.48346290    -0.60200
H1235       H  0.35434764  0.77653792  0.46645811     0.43900
H1236       H  0.33224041  0.73004613  0.67736102     0.43800
C1237       C  0.43554491  0.79060275  0.61054728    -0.05200
C1238       C  0.46471288  0.80914865  0.58595807    -0.32700
C1239       C  0.48111678  0.79623161  0.56264018     0.36600
C1240       C  0.46612441  0.76366466  0.55310729    -0.05600
C1241       C  0.43460609  0.74495242  0.57136579    -0.32600
C1242       C  0.41991213  0.75789515  0.60187040     0.36500
H1243       H  0.47625211  0.83432519  0.58792384     0.16900
O1244       O  0.99786722  0.82057999  0.52919863    -0.60100
H1245       H  0.42149623  0.72024981  0.56303510     0.16900
O1246       O  0.39105746  0.73829368  0.62420886    -0.60200
H1247       H  0.37571587  0.72940161  0.59667910     0.43900
H1248       H  0.01318336  0.82502980  0.55615454     0.43800
C1249       C  0.31190069  0.96722434  0.70044825    -0.05200
C1250       C  0.31394546  0.99192134  0.72842127    -0.32700
C1251       C  0.33581674  0.52274694  0.72021154     0.36600
C1252       C  0.35874026  0.52642546  0.68403866    -0.05600
C1253       C  0.36016384  0.00302014  0.65565123    -0.32600
C1254       C  0.33508210  0.97271406  0.66382917     0.36500
H1255       H  0.29581253  0.98772134  0.75604624     0.16900
O1256       O  0.33857505  0.54814370  0.74560103    -0.60100
H1257       H  0.37825493  0.00723143  0.62782198     0.16900
O1258       O  0.33235516  0.94899028  0.63399001    -0.60200
H1259       H  0.34547735  0.94141149  0.64994103     0.43900
H1260       H  0.31703727  0.54570459  0.74716283     0.43800
C1261       C  0.47626323  0.64205932  0.67249391    -0.05200
C1262       C  0.47752946  0.66287998  0.70892757    -0.32700
C1263       C  0.00724252  0.69256517  0.69913166     0.36600
C1264       C  0.02837724  0.70269455  0.65820042    -0.05600
C1265       C  0.02414756  0.68252506  0.61886511    -0.32600
C1266       C  0.99772493  0.65248562  0.61886196     0.36500
H1267       H  0.45839832  0.65555611  0.73614905     0.16900
O1268       O  0.01126043  0.71217203  0.73807247    -0.60100
H1269       H  0.04110352  0.69020466  0.58809496     0.16900
O1270       O  0.99233817  0.63322137  0.57888131    -0.60200
H1271       H  0.01079461  0.62991551  0.57682235     0.43900
H1272       H  0.51636453  0.71584426  0.76906075     0.43800
C1273       C  0.38599754  0.97735518  0.79472436    -0.05200
C1274       C  0.37934657  0.00112148  0.80924341    -0.32700
C1275       C  0.39033388  0.53044091  0.78778345     0.36600
C1276       C  0.40954256  0.53529395  0.74552526    -0.05600
C1277       C  0.42057668  0.51436809  0.73714438    -0.32600
C1278       C  0.41095217  0.98652196  0.75870380     0.36500
H1279       H  0.36112180  0.99705344  0.83640721     0.16900
O1280       O  0.38323610  0.55285741  0.80235076    -0.60100
H1281       H  0.43754508  0.51892668  0.70722678     0.16900
O1282       O  0.42503843  0.96904597  0.75039009    -0.60200
H1283       H  0.44033657  0.97443900  0.77776676     0.43900
H1284       H  0.38891138  0.55701106  0.83785501     0.43800
C1285       C  0.30887647  0.54541688  0.54960951    -0.05200
C1286       C  0.33939786  0.55802661  0.52769254    -0.32700
C1287       C  0.36681381  0.56903724  0.55687763     0.36600
C1288       C  0.36492240  0.57228837  0.60882917    -0.05600
C1289       C  0.33469266  0.56280261  0.62952619    -0.32600
C1290       C  0.30696163  0.54562265  0.60191648     0.36500
H1291       H  0.34170087  0.55671891  0.48787456     0.16900
O1292       O  0.39419412  0.57283883  0.53516359    -0.60100
H1293       H  0.33232360  0.56676983  0.66813659     0.16900
O1294       O  0.27936129  0.02907175  0.63156217    -0.60200
H1295       H  0.27807870  0.04216869  0.65846641     0.43900
H1296       H  0.39805048  0.58578330  0.50486098     0.43800
C1297       C  0.46447359  0.69582308  0.55989175    -0.05200
C1298       C  0.45027760  0.69312506  0.60709238    -0.32700
C1299       C  0.43077824  0.66341846  0.62984555     0.36600
C1300       C  0.42817715  0.63597691  0.60850089    -0.05600
C1301       C  0.44216322  0.63896993  0.56144307    -0.32600
C1302       C  0.45795280  0.66764126  0.53612487     0.36500
H1303       H  0.45527473  0.71395339  0.62743765     0.16900
O1304       O  0.41762864  0.66197378  0.67589167    -0.60100
H1305       H  0.44378710  0.61973055  0.54581076     0.16900
O1306       O  0.46951175  0.66815984  0.48914878    -0.60200
H1307       H  0.45447474  0.66980370  0.46672610     0.43900
H1308       H  0.39508297  0.65530926  0.66961288     0.43800
C1309       C  0.46595718  0.87336765  0.74348597    -0.05200
C1310       C  0.46868521  0.86329249  0.79058892    -0.32700
C1311       C  0.49738692  0.87930626  0.81632866     0.36600
C1312       C  0.02240835  0.90468318  0.78163342    -0.05600
C1313       C  0.01881184  0.91354148  0.73352594    -0.32600
C1314       C  0.98900726  0.89955268  0.71097717     0.36500
H1315       H  0.44926975  0.84179697  0.80601968     0.16900
O1316       O  0.49881305  0.86969427  0.86361268    -0.60100
H1317       H  0.03859409  0.92893365  0.71068684     0.16900
O1318       O  0.98675383  0.90773389  0.66318511    -0.60200
H1319       H  0.98493255  0.92672714  0.66644619     0.43900
H1320       H  0.49094923  0.84691356  0.86175746     0.43800
C1321       C  0.47325131  0.59163210  0.72883564    -0.05200
C1322       C  0.00212955  0.60080996  0.68955560    -0.32700
C1323       C  0.03204049  0.61643728  0.71223977     0.36600
C1324       C  0.03397817  0.62092089  0.76392392    -0.05600
C1325       C  0.50546850  0.60888075  0.80290136    -0.32600
C1326       C  0.47584672  0.59684476  0.78042221     0.36500
H1327       H  0.00114206  0.59803065  0.64962156     0.16900
O1328       O  0.05911541  0.62914564  0.68330638    -0.60100
H1329       H  0.50727718  0.61449246  0.84213124     0.16900
O1330       O  0.45071818  0.59435357  0.80789899    -0.60200
H1331       H  0.44722531  0.57955578  0.83535528     0.43900
H1332       H  0.06140216  0.64880306  0.66968961     0.43800
C1333       C  0.16446479  0.69636956  0.69370057    -0.05200
C1334       C  0.14052169  0.67034734  0.66914170    -0.32700
C1335       C  0.14371752  0.64440883  0.65946498     0.36600
C1336       C  0.17115265  0.64442756  0.67477435    -0.05600
C1337       C  0.19592388  0.67097380  0.69679605    -0.32600
C1338       C  0.19287208  0.69703880  0.70605891     0.36500
H1339       H  0.11959031  0.67038072  0.65636051     0.16900
O1340       O  0.12084948  0.61956695  0.63321894    -0.60100
H1341       H  0.21721216  0.67104704  0.70810674     0.16900
O1342       O  0.21738732  0.72260423  0.72836119    -0.60200
H1343       H  0.23290642  0.73422826  0.70115010     0.43900
H1344       H  0.10015643  0.61399906  0.64898848     0.43800
C1345       C  0.18251471  0.53488715  0.67299394    -0.05200
C1346       C  0.16396078  0.01059682  0.62443272    -0.32700
C1347       C  0.16589395  0.98349990  0.62235826     0.36600
C1348       C  0.18134674  0.97738154  0.66034210    -0.05600
C1349       C  0.19520786  0.99842899  0.69948929    -0.32600
C1350       C  0.19447480  0.52972519  0.71693087     0.36500
H1351       H  0.15250766  0.01567967  0.59466722     0.16900
O1352       O  0.15279920  0.96325093  0.58337543    -0.60100
H1353       H  0.20753519  0.99385317  0.72850649     0.16900
O1354       O  0.20381707  0.55067605  0.75530248    -0.60200
H1355       H  0.22605756  0.56686279  0.74690826     0.43900
H1356       H  0.13021392  0.94919827  0.59318622     0.43800
C1357       C  0.12879847  0.53252402  0.72599062    -0.05200
C1358       C  0.12368416  0.53125671  0.77782533    -0.32700
C1359       C  0.10138016  0.99671932  0.80430861     0.36600
C1360       C  0.08975889  0.96875195  0.77697630    -0.05600
C1361       C  0.09391640  0.97117608  0.72515471    -0.32600
C1362       C  0.11313220  0.50429943  0.69937074     0.36500
H1363       H  0.13462998  0.55242864  0.79964348     0.16900
O1364       O  0.09721748  0.99556631  0.85487547    -0.60100
H1365       H  0.08844721  0.95082458  0.70303323     0.16900
O1366       O  0.11234772  0.50441672  0.64846100    -0.60200
H1367       H  0.08780318  0.00713026  0.64575840     0.43900
H1368       H  0.07600109  0.49589969  0.85436317     0.43800
C1369       C  0.13163563  0.59471994  0.74100838    -0.05200
C1370       C  0.14748966  0.61856324  0.77558327    -0.32700
C1371       C  0.13256216  0.63302828  0.79925295     0.36600
C1372       C  0.09940469  0.62148310  0.79359260    -0.05600
C1373       C  0.08248478  0.59426985  0.76444042    -0.32600
C1374       C  0.09841125  0.58136781  0.73737908     0.36500
H1375       H  0.17294756  0.62884952  0.77948774     0.16900
O1376       O  0.15185393  0.66082664  0.82261118    -0.60100
H1377       H  0.05704134  0.58337744  0.76102529     0.16900
O1378       O  0.08153637  0.55618984  0.70688281    -0.60200
H1379       H  0.07158316  0.56301119  0.68179895     0.43900
H1380       H  0.16016198  0.65538229  0.85208019     0.43800
C1381       C  0.21776131  0.58240884  0.59966383    -0.05200
C1382       C  0.24705014  0.58577634  0.61282669    -0.32700
C1383       C  0.26277609  0.57507961  0.58110714     0.36600
C1384       C  0.24583706  0.55386635  0.54242059    -0.05600
C1385       C  0.21969723  0.55597423  0.52483729    -0.32600
C1386       C  0.20596125  0.57032058  0.55257211     0.36500
H1387       H  0.25831055  0.59772396  0.64680118     0.16900
O1388       O  0.29519961  0.59057387  0.58243320    -0.60100
H1389       H  0.21221667  0.05058678  0.49318705     0.16900
O1390       O  0.17875204  0.56887716  0.53616573    -0.60200
H1391       H  0.18834637  0.09330808  0.52361795     0.43900
H1392       H  0.30249787  0.60814930  0.55844063     0.43800
C1393       C  0.21343272  0.64049351  0.60161815    -0.05200
C1394       C  0.19596564  0.65017695  0.57391063    -0.32700
C1395       C  0.21055162  0.67971884  0.55263809     0.36600
C1396       C  0.24404275  0.69727506  0.54591423    -0.05600
C1397       C  0.26202361  0.68561395  0.56787673    -0.32600
C1398       C  0.24706057  0.65870367  0.59887628     0.36500
H1399       H  0.17028296  0.63639981  0.57409491     0.16900
O1400       O  0.19162460  0.69179659  0.54048068    -0.60100
H1401       H  0.28755915  0.69776830  0.56279285     0.16900
O1402       O  0.26526201  0.65191529  0.62897581    -0.60200
H1403       H  0.28136714  0.65117863  0.60688100     0.43900
H1404       H  0.19144078  0.70359545  0.57023331     0.43800
C1405       C  0.00251567  0.64154874  0.02163122    -0.05200
C1406       C  0.48042556  0.63965461  0.96973853    -0.32700
C1407       C  0.47584589  0.66529509  0.96669288     0.36600
C1408       C  0.99251128  0.69060817  0.99737649    -0.05600
C1409       C  0.01550278  0.69509700  0.03224029    -0.32600
C1410       C  0.02085078  0.67077608  0.04405921     0.36500
H1411       H  0.46641995  0.61935430  0.94678154     0.16900
O1412       O  0.45443597  0.66487166  0.93349820    -0.60100
H1413       H  0.02895123  0.71740908  0.05073734     0.16900
O1414       O  0.04279517  0.67525912  0.07922984    -0.60200
H1415       H  0.06295714  0.68218771  0.06040432     0.43900
H1416       H  0.43514767  0.64378176  0.93544620     0.43800
C1417       C  0.98774480  0.80245116  0.99710561    -0.05200
C1418       C  0.48577648  0.82205463  0.97323342    -0.32700
C1419       C  0.48288442  0.84766526  0.98699929     0.36600
C1420       C  0.98673603  0.85688989  0.01782411    -0.05600
C1421       C  0.00101521  0.84635481  0.05109204    -0.32600
C1422       C  0.99982862  0.81807730  0.04234731     0.36500
H1423       H  0.47718858  0.81116743  0.93747915     0.16900
O1424       O  0.46919869  0.85882770  0.95504097    -0.60100
H1425       H  0.01164448  0.85924542  0.08476944     0.16900
O1426       O  0.00998892  0.80546989  0.07804966    -0.60200
H1427       H  0.03339078  0.81925086  0.07916762     0.43900
H1428       H  0.44594280  0.84529765  0.96061885     0.43800
C1429       C  0.07088119  0.85643190  0.87704857    -0.05200
C1430       C  0.05691330  0.82755471  0.85205709    -0.32700
C1431       C  0.03670468  0.79919158  0.87718723     0.36600
C1432       C  0.03341380  0.79870129  0.92948239    -0.05600
C1433       C  0.05137209  0.82713777  0.95472169    -0.32600
C1434       C  0.06642247  0.85582361  0.92900600     0.36500
H1435       H  0.05830600  0.82741747  0.81192242     0.16900
O1436       O  0.01765709  0.77301653  0.84991218    -0.60100
H1437       H  0.05076201  0.82747351  0.99476100     0.16900
O1438       O  0.07313180  0.88282445  0.95376913    -0.60200
H1439       H  0.08353027  0.88291379  0.98526279     0.43900
H1440       H  0.53505778  0.77227375  0.83351547     0.43800
C1441       C  0.02801139  0.73500302  0.92027796    -0.05200
C1442       C  0.01187795  0.71157589  0.88531347    -0.32700
C1443       C  0.02635116  0.69690188  0.86116139     0.36600
C1444       C  0.05952560  0.70838925  0.86565402    -0.05600
C1445       C  0.07670885  0.73522157  0.89559945    -0.32600
C1446       C  0.06105891  0.74768497  0.92424258     0.36500
H1447       H  0.49004206  0.70786263  0.88180542     0.16900
O1448       O  0.00681052  0.66977995  0.83642201    -0.60100
H1449       H  0.10216133  0.74621732  0.89837095     0.16900
O1450       O  0.07793027  0.77098207  0.95773426    -0.60200
H1451       H  0.08975990  0.79034707  0.93751397     0.43900
H1452       H  0.49847046  0.65686187  0.86432531     0.43800
C1453       C  0.13620515  0.63526238  0.03294008    -0.05200
C1454       C  0.14439902  0.66065670  0.06443484    -0.32700
C1455       C  0.16862154  0.69044743  0.05038092     0.36600
C1456       C  0.18404644  0.69483619  0.00394675    -0.05600
C1457       C  0.17367138  0.67001520  0.97058409    -0.32600
C1458       C  0.15013535  0.64012268  0.98514114     0.36500
H1459       H  0.13254682  0.65725384  0.10022306     0.16900
O1460       O  0.17707348  0.71530378  0.08162167    -0.60100
H1461       H  0.18530695  0.67352142  0.93458031     0.16900
O1462       O  0.14097560  0.61577038  0.95259186    -0.60200
H1463       H  0.12301264  0.61472245  0.93415414     0.43900
H1464       H  0.18692097  0.71144588  0.11070976     0.43800
C1465       C  0.35828142  0.86661805  0.97745452    -0.05200
C1466       C  0.35899709  0.84030030  0.95985754    -0.32700
C1467       C  0.33099571  0.81132652  0.95811315     0.36600
C1468       C  0.30217161  0.80887094  0.97395258    -0.05600
C1469       C  0.30144215  0.83540419  0.99003404    -0.32600
C1470       C  0.32938260  0.86396110  0.99323174     0.36500
H1471       H  0.38133127  0.84205122  0.94878120     0.16900
O1472       O  0.33203815  0.78531837  0.94319755    -0.60100
H1473       H  0.27938362  0.83338302  0.00348980     0.16900
O1474       O  0.32867739  0.88843475  0.01601811    -0.60200
H1475       H  0.33158115  0.88616300  0.05190014     0.43900
H1476       H  0.33871126  0.78894703  0.90770198     0.43800
C1477       C  0.25205741  0.79619952  0.90777291    -0.05200
C1478       C  0.23981375  0.81654764  0.90982082    -0.32700
C1479       C  0.25360790  0.84424272  0.88064223     0.36600
C1480       C  0.28200479  0.85354239  0.85262577    -0.05600
C1481       C  0.29121129  0.83077405  0.84662244    -0.32600
C1482       C  0.27557046  0.80207418  0.87159128     0.36500
H1483       H  0.22048848  0.81171056  0.93547936     0.16900
O1484       O  0.23897587  0.86165405  0.88004094    -0.60100
H1485       H  0.31200699  0.83545990  0.82489633     0.16900
O1486       O  0.28611579  0.78131771  0.86483768    -0.60200
H1487       H  0.27562384  0.76965940  0.83424945     0.43900
H1488       H  0.22387848  0.85326759  0.85226083     0.43800
C1489       C  0.18640082  0.74044642  0.93354164    -0.05200
C1490       C  0.15901049  0.73305414  0.96248135    -0.32700
C1491       C  0.12850658  0.71611627  0.94219902     0.36600
C1492       C  0.12534530  0.70960125  0.89112010    -0.05600
C1493       C  0.15290826  0.72175996  0.86091723    -0.32600
C1494       C  0.18315264  0.73590672  0.88177106     0.36500
H1495       H  0.16104916  0.73721858  0.00212284     0.16900
O1496       O  0.10215899  0.70362711  0.97297328    -0.60100
H1497       H  0.15076235  0.71667166  0.82146004     0.16900
O1498       O  0.20859731  0.74118745  0.85218385    -0.60200
H1499       H  0.21153274  0.75763062  0.82809670     0.43900
H1500       H  0.10083906  0.72173783  0.98586831     0.43800
C1501       C  0.30375892  0.49613981  0.00608778    -0.05200
C1502       C  0.30797209  0.98019180  0.03637165    -0.32700
C1503       C  0.33709016  0.98318804  0.04725109     0.36600
C1504       C  0.36157929  0.50065323  0.02819524    -0.05600
C1505       C  0.36040101  0.52061537  0.99252511    -0.32600
C1506       C  0.33150825  0.51819361  0.98088294     0.36500
H1507       H  0.28705738  0.96419667  0.05802024     0.16900
O1508       O  0.33901634  0.96523233  0.08424248    -0.60100
H1509       H  0.38183250  0.53768242  0.97297309     0.16900
O1510       O  0.33032656  0.53706873  0.94467808    -0.60200
H1511       H  0.34268031  0.55870003  0.95749542     0.43900
H1512       H  0.33292842  0.94486676  0.06850385     0.51300
C1513       C  0.18799845  0.49769655  0.98382207    -0.05200
C1514       C  0.16523169  0.97528204  0.00880136    -0.32700
C1515       C  0.13531558  0.97214671  0.00817028     0.36600
C1516       C  0.13051390  0.49641495  0.97687391    -0.05600
C1517       C  0.15027328  0.50391685  0.93491956    -0.32600
C1518       C  0.17899079  0.50431141  0.93795434     0.36500
H1519       H  0.17113488  0.96434171  0.03836060     0.16900
O1520       O  0.11362615  0.95515592  0.04504747    -0.60100
H1521       H  0.14394817  0.51005384  0.90026670     0.16900
O1522       O  0.19845325  0.51164456  0.89659833    -0.60200
H1523       H  0.20391441  0.53303412  0.88638250     0.43900
H1524       H  0.10092450  0.93374667  0.03155204     0.43800
C1525       C  0.19950646  0.95062755  0.91662667    -0.05200
C1526       C  0.19736703  0.95831125  0.86741317    -0.32700
C1527       C  0.16877449  0.94210143  0.84184038     0.36600
C1528       C  0.14039686  0.91992330  0.86705819    -0.05600
C1529       C  0.14413935  0.90894468  0.91332157    -0.32600
C1530       C  0.17337531  0.92396332  0.93789372     0.36500
H1531       H  0.21688455  0.97885444  0.85013946     0.16900
O1532       O  0.16820920  0.95055887  0.79353138    -0.60100
H1533       H  0.12472030  0.89012445  0.93263026     0.16900
O1534       O  0.17501506  0.91474284  0.98524623    -0.60200
H1535       H  0.18589832  0.90245992  0.98159363     0.43900
H1536       H  0.16398946  0.93205976  0.77346198     0.43800
C1537       C  0.26137452  0.95289122  0.92957155    -0.05200
C1538       C  0.26490887  0.93047009  0.95635186    -0.32700
C1539       C  0.28062008  0.91586290  0.93499760     0.36600
C1540       C  0.29077740  0.92169878  0.88495460    -0.05600
C1541       C  0.28428528  0.94170620  0.85697141    -0.32600
C1542       C  0.27056585  0.95786947  0.87906479     0.36500
H1543       H  0.25757634  0.92601484  0.99508483     0.16900
O1544       O  0.28735982  0.89724731  0.96375513    -0.60100
H1545       H  0.29268617  0.94706844  0.81872883     0.16900
O1546       O  0.26966416  0.98105774  0.85266827    -0.60200
H1547       H  0.25727773  0.97080235  0.82249574     0.43900
H1548       H  0.26649484  0.87904035  0.97360325     0.43800
C1549       C  0.44256368  0.75588779  0.04951684    -0.05200
C1550       C  0.44113918  0.75718559  0.10154523    -0.32700
C1551       C  0.42558407  0.77099241  0.12561401     0.36600
C1552       C  0.41392604  0.78719567  0.09807145    -0.05600
C1553       C  0.41252660  0.78365710  0.04618127    -0.32600
C1554       C  0.42496662  0.76647493  0.02234129     0.36500
H1555       H  0.45439080  0.75025050  0.12413916     0.16900
O1556       O  0.42525827  0.77174282  0.17659537    -0.60100
H1557       H  0.40320510  0.79534939  0.02398943     0.16900
O1558       O  0.42312204  0.76335114  0.97166196    -0.60200
H1559       H  0.40128616  0.74583108  0.96546829     0.43900
H1560       H  0.40294070  0.75695979  0.18675908     0.43800
C1561       C  0.35143815  0.79364952  0.11175564    -0.05200
C1562       C  0.34084746  0.76438553  0.08881029    -0.32700
C1563       C  0.31445834  0.75137597  0.05705613     0.36600
C1564       C  0.29611268  0.76591794  0.05174864    -0.05600
C1565       C  0.30438935  0.79281630  0.07938699    -0.32600
C1566       C  0.33269074  0.80794472  0.10545273     0.36500
H1567       H  0.35328206  0.75174571  0.09412750     0.16900
O1568       O  0.30735588  0.72494145  0.03078152    -0.60100
H1569       H  0.29020134  0.80396226  0.07695960     0.16900
O1570       O  0.34330220  0.83821716  0.11991503    -0.60200
H1571       H  0.32761859  0.83711240  0.14502363     0.43900
H1572       H  0.31971957  0.73254550  0.99923980     0.43800
C1573       C  0.33267614  0.97691675  0.33362700    -0.05200
C1574       C  0.35822381  0.49612320  0.37812806    -0.32700
C1575       C  0.35670765  0.52250137  0.39384089     0.36600
C1576       C  0.33511278  0.52964893  0.37161517    -0.05600
C1577       C  0.31732298  0.51162270  0.33149374    -0.32600
C1578       C  0.31037659  0.98175794  0.30820878     0.36500
H1579       H  0.37334416  0.48962997  0.39764805     0.16900
O1580       O  0.37540198  0.54023968  0.43206495    -0.60100
H1581       H  0.30182462  0.51769692  0.31219771     0.16900
O1582       O  0.29118673  0.96106286  0.27298944    -0.60200
H1583       H  0.29359027  0.97373329  0.24291653     0.43900
H1584       H  0.39605229  0.55534670  0.41624615     0.43800
C1585       C  0.33464800  0.86094356  0.33080617    -0.05200
C1586       C  0.34888254  0.85500092  0.37074373    -0.32700
C1587       C  0.35446696  0.83006710  0.36897260     0.36600
C1588       C  0.34278819  0.80872749  0.32937640    -0.05600
C1589       C  0.32735930  0.81388640  0.29019289    -0.32600
C1590       C  0.32422573  0.84053599  0.28982908     0.36500
H1591       H  0.35753294  0.87097716  0.40184953     0.16900
O1592       O  0.37131540  0.82669398  0.40627428    -0.60100
H1593       H  0.31863343  0.79778475  0.25926951     0.16900
O1594       O  0.31216135  0.84728969  0.24892961    -0.60200
H1595       H  0.29116129  0.82847877  0.24285170     0.43900
H1596       H  0.39400021  0.84126090  0.39758442     0.43800
C1597       C  0.26005069  0.95724801  0.44623089    -0.05200
C1598       C  0.25081869  0.94643936  0.39740405    -0.32700
C1599       C  0.26168034  0.92801268  0.37337827     0.36600
C1600       C  0.28703442  0.92564981  0.39335475    -0.05600
C1601       C  0.29519892  0.93507562  0.44261412    -0.32600
C1602       C  0.28000824  0.94813037  0.47015839     0.36500
H1603       H  0.23605423  0.95293845  0.37701499     0.16900
O1604       O  0.24938166  0.91475521  0.32840310    -0.60100
H1605       H  0.31469594  0.93405661  0.45927843     0.16900
O1606       O  0.28591290  0.95333703  0.52017829    -0.60200
H1607       H  0.30931461  0.96669330  0.52330822     0.43900
H1608       H  0.22991579  0.89461983  0.33665672     0.43800
C1609       C  0.26285888  0.80771828  0.44546252    -0.05200
C1610       C  0.25790697  0.80769086  0.39405598    -0.32700
C1611       C  0.26774713  0.83571195  0.36794805     0.36600
C1612       C  0.28754758  0.86469107  0.39086929    -0.05600
C1613       C  0.29111089  0.86485367  0.44252073    -0.32600
C1614       C  0.27691483  0.83684596  0.46999065     0.36500
H1615       H  0.24647121  0.78600052  0.37391347     0.16900
O1616       O  0.26064404  0.83456158  0.31866332    -0.60100
H1617       H  0.30642699  0.88632448  0.46162074     0.16900
O1618       O  0.27847542  0.83816510  0.52074589    -0.60200
H1619       H  0.26213127  0.84336809  0.53167324     0.43900
H1620       H  0.24046582  0.83491378  0.31818747     0.43800
C1621       C  0.38188415  0.91197791  0.27306920    -0.05200
C1622       C  0.40139875  0.90330620  0.29889756    -0.32700
C1623       C  0.41337917  0.88557879  0.27563245     0.36600
C1624       C  0.40969956  0.87997378  0.22414928    -0.05600
C1625       C  0.39514699  0.89361589  0.19715815    -0.32600
C1626       C  0.38011104  0.90806089  0.22112138     0.36500
H1627       H  0.40361338  0.90647679  0.33877008     0.16900
O1628       O  0.42540831  0.87109399  0.30409010    -0.60100
H1629       H  0.39199050  0.88963532  0.15749971     0.16900
O1630       O  0.36007208  0.91400830  0.19428090    -0.60200
H1631       H  0.37398929  0.93105235  0.17073910     0.43900
H1632       H  0.44392498  0.88811083  0.32142962     0.43800
C1633       C  0.14142604  0.97488713  0.30784502    -0.05200
C1634       C  0.14466790  0.00218379  0.32948460    -0.32700
C1635       C  0.20995150  0.50057645  0.31188202     0.36600
C1636       C  0.21026334  0.52559526  0.28585579    -0.05600
C1637       C  0.18834101  0.51758769  0.24782868    -0.32600
C1638       C  0.16514694  0.97747818  0.27435980     0.36500
H1639       H  0.12698906  0.00085070  0.35568614     0.16900
O1640       O  0.23382339  0.50531733  0.34338857    -0.60100
H1641       H  0.19040776  0.53518520  0.22236590     0.16900
O1642       O  0.16224269  0.95145624  0.25130460    -0.60200
H1643       H  0.15833948  0.46840491  0.17959053     0.43900
H1644       H  0.18562519  0.05949805  0.37245825     0.43800
C1645       C  0.02374505  0.85811279  0.33872011    -0.05200
C1646       C  0.01521678  0.83050717  0.31273746    -0.32700
C1647       C  0.48485895  0.80370170  0.33644995     0.36600
C1648       C  0.47125362  0.80416620  0.38260935    -0.05600
C1649       C  0.48299634  0.83238812  0.40845948    -0.32600
C1650       C  0.00399831  0.85775983  0.37784821     0.36500
H1651       H  0.03012629  0.83025412  0.28274046     0.16900
O1652       O  0.47326891  0.77652460  0.30981597    -0.60100
H1653       H  0.47224728  0.83301158  0.44370359     0.16900
O1654       O  0.01149715  0.88468706  0.40300522    -0.60200
H1655       H  0.53325451  0.88405400  0.44447115     0.43900
H1656       H  0.45501449  0.77483180  0.29131674     0.43800
C1657       C  0.07899568  0.86416963  0.38495523    -0.05200
C1658       C  0.07208569  0.83624672  0.36029578    -0.32700
C1659       C  0.05571547  0.80684295  0.38471925     0.36600
C1660       C  0.05010832  0.80520574  0.43647304    -0.05600
C1661       C  0.06151887  0.83376836  0.46225748    -0.32600
C1662       C  0.07490142  0.86278320  0.43698676     0.36500
H1663       H  0.07579168  0.83681996  0.32042851     0.16900
O1664       O  0.53625722  0.77347058  0.35341110    -0.60100
H1665       H  0.05760148  0.83330669  0.50204524     0.16900
O1666       O  0.08113001  0.88909257  0.46295141    -0.60200
H1667       H  0.10177473  0.89606144  0.47914291     0.43900
H1668       H  0.55275795  0.77171364  0.33397386     0.43800
C1669       C  0.19492881  0.96306296  0.44420489    -0.05200
C1670       C  0.18260882  0.93175924  0.42825555    -0.32700
C1671       C  0.15562152  0.91708386  0.39671283     0.36600
C1672       C  0.13741686  0.93163152  0.38776765    -0.05600
C1673       C  0.14655942  0.95963076  0.41229415    -0.32600
C1674       C  0.17668090  0.97710522  0.43184969     0.36500
H1675       H  0.19424151  0.91895267  0.43842831     0.16900
O1676       O  0.14816356  0.88949027  0.37382823    -0.60100
H1677       H  0.13170053  0.96998378  0.41098691     0.16900
O1678       O  0.18167708  0.50062949  0.43910488    -0.60200
H1679       H  0.19463149  0.51258382  0.40976486     0.43900
H1680       H  0.14189399  0.87386915  0.40102035     0.43800
C1681       C  0.02936784  0.90023269  0.25871920    -0.05200
C1682       C  0.52338208  0.87588021  0.23070877    -0.32700
C1683       C  0.49350240  0.86009372  0.20966669     0.36600
C1684       C  0.47341749  0.87334097  0.20925718    -0.05600
C1685       C  0.98271202  0.90064381  0.22731827    -0.32600
C1686       C  0.00950562  0.91330481  0.25836866     0.36500
H1687       H  0.53880508  0.86611060  0.22677054     0.16900
O1688       O  0.48355223  0.83036305  0.19332673    -0.60100
H1689       H  0.96935390  0.91253733  0.22560570     0.16900
O1690       O  0.01490082  0.93709819  0.29016959    -0.60200
H1691       H  0.01730804  0.95448141  0.26878830     0.43900
H1692       H  0.47351133  0.81673213  0.22291128     0.43800
C1693       C  0.42077550  0.63948815  0.11346251    -0.05200
C1694       C  0.43845919  0.66865505  0.13740693    -0.32700
C1695       C  0.45515468  0.69660608  0.10951736     0.36600
C1696       C  0.44809735  0.69680195  0.05888749    -0.05600
C1697       C  0.42683614  0.66828296  0.03697608    -0.32600
C1698       C  0.41834952  0.64001967  0.06133987     0.36500
H1699       H  0.44272437  0.66949027  0.17691311     0.16900
O1700       O  0.48128644  0.72202127  0.12951288    -0.60100
H1701       H  0.42129743  0.66801292  0.99826069     0.16900
O1702       O  0.41054516  0.61358705  0.03392712    -0.60200
H1703       H  0.39736784  0.61307515  0.00578530     0.43900
H1704       H  0.47554732  0.72415534  0.16430145     0.43800
C1705       C  0.35332186  0.57168471  0.11330457    -0.05200
C1706       C  0.34624907  0.58730243  0.07615485    -0.32700
C1707       C  0.31799851  0.57148688  0.04902256     0.36600
C1708       C  0.29545596  0.54037536  0.06110860    -0.05600
C1709       C  0.29900735  0.52781573  0.10545661    -0.32600
C1710       C  0.32696946  0.54383963  0.13249465     0.36500
H1711       H  0.36175953  0.61127571  0.06683766     0.16900
O1712       O  0.31370128  0.58587056  0.00885369    -0.60100
H1713       H  0.27828623  0.00436532  0.11115508     0.16900
O1714       O  0.32883897  0.53133426  0.17681571    -0.60200
H1715       H  0.32156337  0.04399143  0.19715995     0.43900
H1716       H  0.30488618  0.59850234  0.02288730     0.43800
C1717       C  0.37321820  0.96836117  0.26055443    -0.05200
C1718       C  0.40620352  0.98960145  0.25999327    -0.32700
C1719       C  0.42249682  0.51403329  0.22338337     0.36600
C1720       C  0.40275784  0.52166550  0.19541381    -0.05600
C1721       C  0.37034986  0.49747780  0.19297569    -0.32600
C1722       C  0.35537884  0.97093840  0.22298910     0.36500
H1723       H  0.42127966  0.98618525  0.28526958     0.16900
O1724       O  0.45473170  0.52980803  0.21590190    -0.60100
H1725       H  0.35310380  0.49886216  0.17063229     0.16900
O1726       O  0.32493283  0.94704188  0.21482918    -0.60200
H1727       H  0.32593256  0.43889034  0.18062156     0.43900
H1728       H  0.45637909  0.01944297  0.19260114     0.43800
C1729       C  0.23909710  0.70078567  0.04866224    -0.05200
C1730       C  0.23715648  0.70046977  0.10069198    -0.32700
C1731       C  0.22474266  0.67213886  0.12741144     0.36600
C1732       C  0.21188912  0.64308749  0.10222942    -0.05600
C1733       C  0.21657670  0.64437367  0.05039497    -0.32600
C1734       C  0.23191638  0.67285566  0.02437081     0.36500
H1735       H  0.24335441  0.72183493  0.12047975     0.16900
O1736       O  0.22282270  0.67290335  0.17813743    -0.60100
H1737       H  0.20584757  0.62377213  0.02842413     0.16900
O1738       O  0.23601824  0.67267900  0.97382707    -0.60200
H1739       H  0.25758737  0.67558715  0.96897562     0.43900
H1740       H  0.24400579  0.67767032  0.18990256     0.43800
C1741       C  0.23777284  0.54582228  0.04504470    -0.05200
C1742       C  0.24110442  0.55009935  0.09689570    -0.32700
C1743       C  0.23087266  0.56848112  0.12205079     0.36600
C1744       C  0.21208600  0.57845159  0.09749262    -0.05600
C1745       C  0.20890276  0.57404034  0.04588969    -0.32600
C1746       C  0.22561618  0.56230969  0.01951933     0.36500
H1747       H  0.25024515  0.53820477  0.11871546     0.16900
O1748       O  0.23632381  0.57361838  0.17190939    -0.60100
H1749       H  0.19160186  0.57706212  0.02596733     0.16900
O1750       O  0.22712666  0.56436545  0.96871198    -0.60200
H1751       H  0.24895176  0.58155156  0.96065535     0.43900
H1752       H  0.25576838  0.59446294  0.17418226     0.43800
C1753       C  0.08606719  0.96378306  0.25617323    -0.05200
C1754       C  0.09352757  0.96435758  0.20560930    -0.32700
C1755       C  0.10486370  0.99192483  0.17743518     0.36600
C1756       C  0.12226482  0.53099863  0.21652853    -0.05600
C1757       C  0.12817562  0.52812529  0.26647177    -0.32600
C1758       C  0.11488433  0.49869239  0.28978484     0.36500
H1759       H  0.09230765  0.94392334  0.18860851     0.16900
O1760       O  0.11159493  0.99100559  0.12786922    -0.60100
H1761       H  0.14616686  0.54813449  0.28605906     0.16900
O1762       O  0.12110898  0.49704693  0.33890832    -0.60200
H1763       H  0.14453954  0.50715083  0.34115573     0.43900
H1764       H  0.10034945  0.99984570  0.10966800     0.43800
C1765       C  0.15534313  0.69000138  0.28544932    -0.05200
C1766       C  0.18306192  0.71508598  0.30486446    -0.32700
C1767       C  0.20844681  0.71078263  0.31686268     0.36600
C1768       C  0.20676178  0.68198087  0.30540762    -0.05600
C1769       C  0.18419071  0.66292645  0.27060592    -0.32600
C1770       C  0.16127556  0.67025118  0.25578964     0.36500
H1771       H  0.18438006  0.73693547  0.31386831     0.16900
O1772       O  0.23413938  0.73447383  0.34013570    -0.60100
H1773       H  0.18615639  0.64460253  0.25188659     0.16900
O1774       O  0.15185129  0.66576326  0.20753174    -0.60200
H1775       H  0.16800743  0.68475831  0.18932740     0.43900
H1776       H  0.24847728  0.74786478  0.31288451     0.43800
C1777       C  0.47618528  0.66893721  0.35291949    -0.05200
C1778       C  0.49797673  0.69234244  0.32067339    -0.32700
C1779       C  0.02412347  0.69582089  0.30630783     0.36600
C1780       C  0.03119259  0.67502719  0.33022739    -0.05600
C1781       C  0.00860523  0.65170268  0.36198919    -0.32600
C1782       C  0.48194535  0.64581132  0.37139717     0.36500
H1783       H  0.49329349  0.70999215  0.30609578     0.16900
O1784       O  0.04663960  0.71975525  0.27730098    -0.60100
H1785       H  0.01420007  0.63612214  0.38169109     0.16900
O1786       O  0.46024403  0.62227321  0.40204848    -0.60200
H1787       H  0.47101193  0.62506838  0.43420553     0.43900
H1788       H  0.03856747  0.71491363  0.24283489     0.43800
C1789       C  0.08295563  0.71492312  0.39224337    -0.05200
C1790       C  0.09287269  0.74693132  0.38953415    -0.32700
C1791       C  0.08187277  0.76074956  0.42472920     0.36600
C1792       C  0.05556694  0.74167206  0.45663587    -0.05600
C1793       C  0.04792361  0.70995047  0.46096424    -0.32600
C1794       C  0.06342293  0.69777769  0.43255698     0.36500
H1795       H  0.10913145  0.76131564  0.36021118     0.16900
O1796       O  0.09826228  0.79260754  0.42890698    -0.60100
H1797       H  0.53448888  0.68896322  0.48125221     0.16900
O1798       O  0.05673633  0.66777413  0.44138564    -0.60200
H1799       H  0.57829783  0.66637051  0.45559812     0.43900
H1800       H  0.11287921  0.79710579  0.45696376     0.43800
C1801       C  0.19936344  0.73656163  0.43829122    -0.05200
C1802       C  0.17732717  0.70394486  0.43329015    -0.32700
C1803       C  0.14954829  0.69225001  0.40604000     0.36600
C1804       C  0.14213177  0.71268750  0.38208414    -0.05600
C1805       C  0.16010666  0.74469516  0.39408012    -0.32600
C1806       C  0.18716357  0.75624285  0.42447505     0.36500
H1807       H  0.18055021  0.68603271  0.44966099     0.16900
O1808       O  0.13057594  0.66049359  0.40055334    -0.60100
H1809       H  0.15427032  0.76114799  0.37835676     0.16900
O1810       O  0.19965208  0.78595871  0.44239445    -0.60200
H1811       H  0.18989132  0.78346493  0.47596510     0.43900
H1812       H  0.14356096  0.65380033  0.38105702     0.43800
C1813       C  0.03443591  0.63384095  0.25821437    -0.05200
C1814       C  0.00760285  0.60955358  0.28264836    -0.32700
C1815       C  0.47400584  0.58707823  0.25769884     0.36600
C1816       C  0.46954057  0.59221518  0.20756838    -0.05600
C1817       C  0.49670247  0.61381201  0.17978846    -0.32600
C1818       C  0.03072798  0.64048434  0.20895891     0.36500
H1819       H  0.00951078  0.60380968  0.32064783     0.16900
O1820       O  0.44816182  0.57015271  0.28871156    -0.60100
H1821       H  0.49412497  0.61929569  0.14174811     0.16900
O1822       O  0.05348015  0.66758662  0.18629058    -0.60200
H1823       H  0.04402440  0.68125473  0.18462818     0.43900
H1824       H  0.45191881  0.55466022  0.30600966     0.43800
C1825       C  0.09337635  0.62907968  0.25674063    -0.05200
C1826       C  0.10313089  0.61260784  0.28748740    -0.32700
C1827       C  0.11671691  0.59563739  0.26702718     0.36600
C1828       C  0.11720539  0.59176888  0.21499074    -0.05600
C1829       C  0.10006489  0.60154741  0.18618460    -0.32600
C1830       C  0.08967857  0.62136052  0.20552866     0.36500
H1831       H  0.10507524  0.61707698  0.32700945     0.16900
O1832       O  0.13421421  0.58822839  0.29738250    -0.60100
H1833       H  0.10008008  0.59872695  0.14649284     0.16900
O1834       O  0.08377519  0.63854380  0.17225348    -0.60200
H1835       H  0.06659860  0.62317602  0.15071261     0.43900
H1836       H  0.11883898  0.57320939  0.32218973     0.43800
C1837       C  0.61656276  0.17995567  0.29106245     0.02500
C1838       C  0.58799577  0.15348318  0.27116864     0.02500
C1839       C  0.55832627  0.15161721  0.28047800     0.02500
C1840       C  0.55712977  0.17310504  0.31437341     0.02500
C1841       C  0.58373675  0.19465746  0.34235079     0.02500
C1842       C  0.61332334  0.19667281  0.33304300     0.02500
C1843       C  0.63619350  0.08102096  0.18529428     0.02500
C1844       C  0.63570582  0.05200823  0.18278334     0.02500
C1845       C  0.65848321  0.05040378  0.15152371    -0.18000
C1846       C  0.68298997  0.07651563  0.12560841     0.02500
C1847       C  0.68396082  0.10570077  0.12872382     0.02500
C1848       C  0.65969628  0.10658519  0.15674864    -0.18000
H1849       H  0.65925853  0.12813313  0.15618567     0.04500
H1850       H  0.65776387  0.02822641  0.14828198     0.04500
C1851       C  0.93706974  0.08848135  0.19622000     0.02500
C1852       C  0.91131503  0.05792510  0.18294173     0.02500
C1853       C  0.88901720  0.05793005  0.14951486    -0.18000
C1854       C  0.88522230  0.08372660  0.13967632     0.02500
C1855       C  0.91167602  0.11359133  0.14942532     0.02500
C1856       C  0.93588152  0.11503964  0.17944565    -0.18000
H1857       H  0.95601084  0.13791126  0.18728712     0.04500
H1858       H  0.87262984  0.03679369  0.13097506     0.04500
C1859       C  0.60980575  0.44206888  0.31178479     0.02500
C1860       C  0.58306971  0.43763136  0.28440945     0.02500
C1861       C  0.55398220  0.40943091  0.29012111     0.02500
C1862       C  0.55134875  0.38603756  0.32394323     0.02500
C1863       C  0.57820328  0.38944425  0.35014650     0.02500
C1864       C  0.60747851  0.41857720  0.34625671     0.02500
C1865       C  0.82705349  0.38569183  0.31600856     0.02500
C1866       C  0.85221606  0.41233296  0.29120209     0.02500
C1867       C  0.85177495  0.44082347  0.29241432     0.02500
C1868       C  0.82816042  0.44293490  0.32186090     0.02500
C1869       C  0.80445910  0.41679524  0.34963745     0.02500
C1870       C  0.80388776  0.38783643  0.34638525     0.02500
C1871       C  0.91817377  0.35683275  0.19982085     0.02500
C1872       C  0.94670378  0.36249545  0.17452642     0.02500
C1873       C  0.94256087  0.34373220  0.13224832    -0.18000
C1874       C  0.91436296  0.31513155  0.12364225     0.02500
C1875       C  0.88621686  0.30947200  0.14881578     0.02500
C1876       C  0.88947161  0.32926935  0.18890126    -0.18000
H1877       H  0.86825729  0.32532142  0.20843176     0.04500
H1878       H  0.96242031  0.34932640  0.10769536     0.04500
C1879       C  0.72312378  0.99851665  0.98545254     0.02500
C1880       C  0.74538240  0.02134217  0.01844541     0.02500
C1881       C  0.77392567  0.02165489  0.02693859     0.02500
C1882       C  0.78028532  0.00025896  0.00111217     0.02500
C1883       C  0.76294192  0.47949029  0.96092066     0.02500
C1884       C  0.73558897  0.48109015  0.94975204     0.02500
C1885       C  0.71710737  0.22242809  0.00402574     0.02500
C1886       C  0.74327289  0.22489126  0.03092457     0.02500
C1887       C  0.77151221  0.25423157  0.03197832     0.02500
C1888       C  0.77478311  0.27817041  0.99851366     0.02500
C1889       C  0.75046296  0.27359168  0.96509555     0.02500
C1890       C  0.72034578  0.24637972  0.97109282     0.02500
C1891       C  0.49813289  0.27735652  0.99271886     0.02500
C1892       C  0.97413141  0.25445236  0.03104676     0.02500
C1893       C  0.97553513  0.22662574  0.03354667     0.02500
C1894       C  0.49541812  0.21988760  0.98513238     0.02500
C1895       C  0.51830830  0.24552761  0.95569981     0.02500
C1896       C  0.52048834  0.27498036  0.96058511     0.02500
C1897       C  0.67176455  0.11385558  0.68856953     0.02500
C1898       C  0.69294086  0.11396907  0.65077835     0.02500
C1899       C  0.69334650  0.08597808  0.64190579     0.02500
C1900       C  0.67182037  0.05845238  0.66895379     0.02500
C1901       C  0.64959620  0.05793658  0.70483768     0.02500
C1902       C  0.65025851  0.08614962  0.71558185     0.02500
C1903       C  0.60148568  0.18495847  0.87533404     0.02500
C1904       C  0.58267019  0.19258080  0.84532289     0.02500
C1905       C  0.56925063  0.17412625  0.80275113    -0.18000
C1906       C  0.56779698  0.14519626  0.79576096     0.02500
C1907       C  0.58627644  0.13730521  0.82640918     0.02500
C1908       C  0.59971243  0.15589723  0.86886705    -0.18000
H1909       H  0.61266959  0.14984528  0.89451998     0.04500
H1910       H  0.55608581  0.18021755  0.77750862     0.04500
C1911       C  0.58923820  0.38978872  0.85106515     0.02500
C1912       C  0.61715389  0.41965501  0.85560216     0.02500
C1913       C  0.61521756  0.44575765  0.83942550    -0.18000
C1914       C  0.58870297  0.44353252  0.81500282     0.02500
C1915       C  0.56104834  0.41348728  0.80932327     0.02500
C1916       C  0.56342595  0.38750886  0.82451329    -0.18000
H1917       H  0.54342774  0.36440472  0.81794744     0.04500
H1918       H  0.63579415  0.46884741  0.84408446     0.04500
C1919       C  0.89354391  0.05935272  0.65940331     0.02500
C1920       C  0.91895882  0.06291647  0.68955917     0.02500
C1921       C  0.94852483  0.09067976  0.68556324     0.02500
C1922       C  0.95128825  0.11504284  0.65434310     0.02500
C1923       C  0.92551394  0.11255492  0.62643888     0.02500
C1924       C  0.89625026  0.08376970  0.62752508     0.02500
C1925       C  0.94655882  0.32939956  0.66583831     0.02500
C1926       C  0.94326144  0.35281770  0.69142627     0.02500
C1927       C  0.91464842  0.35276846  0.68852282     0.02500
C1928       C  0.88893006  0.32745348  0.66440611     0.02500
C1929       C  0.89206871  0.30496840  0.63589937     0.02500
C1930       C  0.92217839  0.30714351  0.63433665     0.02500
C1931       C  0.82011214  0.41514252  0.86639679     0.02500
C1932       C  0.81030754  0.38630291  0.84167791     0.02500
C1933       C  0.82858666  0.38756257  0.79935121    -0.18000
C1934       C  0.85704852  0.41486580  0.78425282     0.02500
C1935       C  0.86648029  0.44362297  0.80914410     0.02500
C1936       C  0.85000603  0.44130739  0.85412132    -0.18000
H1937       H  0.85786744  0.46190599  0.87689545     0.04500
H1938       H  0.82238335  0.36598414  0.78025733     0.04500
C1939       C  0.52469760  0.27375400  0.46353037     0.02500
C1940       C  0.53178263  0.25019367  0.47955263     0.02500
C1941       C  0.51329713  0.23123288  0.52070875    -0.18000
C1942       C  0.98906761  0.23289365  0.52989250     0.02500
C1943       C  0.98121914  0.25426436  0.50849633     0.02500
C1944       C  0.49760561  0.27332085  0.48419318    -0.18000
H1945       H  0.49185289  0.29034900  0.47009113     0.04500
H1946       H  0.51912137  0.21498903  0.53732542     0.04500
C1947       C  0.75220240  0.27600286  0.46500387     0.02500
C1948       C  0.72394902  0.24597807  0.46363107     0.02500
C1949       C  0.72274394  0.22278918  0.49505304    -0.18000
C1950       C  0.74664308  0.22683958  0.52811719     0.02500
C1951       C  0.77647612  0.25522163  0.52484061     0.02500
C1952       C  0.77794750  0.27923743  0.49412355    -0.18000
H1953       H  0.79991571  0.30145035  0.49318123     0.04500
H1954       H  0.70139338  0.20019535  0.49515697     0.04500
C1955       C  0.74957805  0.47631494  0.46682991     0.02500
C1956       C  0.71992019  0.47545745  0.47267214     0.02500
C1957       C  0.72203804  0.00194204  0.50602559    -0.18000
C1958       C  0.74908016  0.02955433  0.52341696     0.02500
C1959       C  0.77878333  0.03018105  0.51822903     0.02500
C1960       C  0.77978128  0.00669860  0.48924183    -0.18000
H1961       H  0.80259623  0.00822716  0.48401623     0.04500
H1962       H  0.69883054  0.99797093  0.51688217     0.04500
O1963       O  0.96205601  0.01864085  0.00543572    -0.88100
C1964       C  0.52284734  0.05253273  0.10140205     0.87900
Mg1965     Mg  0.92206873  0.47431720  0.01601433     1.58100
O1966       O  0.55325295  0.03525963  0.99509362    -0.87800
O1967       O  0.50670836  0.05004904  0.93783745    -0.75200
C1968       C  0.98918960  0.39046701  0.01358655     0.93000
O1969       O  0.95228583  0.99776402  0.12083471    -0.75000
O1970       O  0.96279082  0.38861917  0.02340630    -0.82500
Mg1971     Mg  0.96882186  0.04267407  0.07412758     1.58000
C1972       C  0.60385349  0.99016183  0.01242153     0.92900
O1973       O  0.98334538  0.08912140  0.03550904    -0.80800
H1974       H  0.56685607  0.04197841  0.92337925    -0.06100
C1975       C  0.53075803  0.47270976  0.08761949     0.87800
O1976       O  0.94366840  0.46256520  0.94798718    -0.75300
O1977       O  0.51339614  0.05088387  0.05855916    -0.88000
O1978       O  0.60496175  0.01607994  0.01955821    -0.80800
C1979       C  0.60986898  0.10352912  0.04801209     0.93000
C1980       C  0.50927471  0.11188150  0.99738097     0.92900
Mg1981     Mg  0.53393072  0.45983372  0.97728400     1.58000
O1982       O  0.52285327  0.41548092  0.01809328    -0.80800
O1983       O  0.54793013  0.50307289  0.92851161    -0.75000
O1984       O  0.58259965  0.10021393  0.05301890    -0.80800
O1985       O  0.91956488  0.03429869  0.06844066    -0.82600
O1986       O  0.91080298  0.40353364  0.00169469    -0.80900
C1987       C  0.55731905  0.02591272  0.95454456     0.87300
O1988       O  0.97974342  0.45483546  0.98152441    -0.88000
O1989       O  0.54130521  0.48433491  0.04612377    -0.88100
O1990       O  0.99902909  0.44665012  0.09407712    -0.75200
Mg1991     Mg  0.54484983  0.07359769  0.99720994     1.58000
O1992       O  0.61390084  0.08020695  0.05030671    -0.82500
H1993       H  0.95204811  0.02573819  0.93644174    -0.06300
O1994       O  0.94845210  0.46510543  0.06831096    -0.87800
H1995       H  0.94201642  0.45250678  0.14017710    -0.06100
H1996       H  0.97196807  0.45082111  0.90824317    -0.06300
C1997       C  0.94790606  0.47076889  0.11306000     0.87300
C1998       C  0.96976433  0.03220624  0.96476894     0.87900
C1999       C  0.96556014  0.45576220  0.94440376     0.87900
H2000       H  0.54646375  0.48064686  0.11900859    -0.06300
O2001       O  0.54440415  0.04613616  0.11101804    -0.75300
Mg2002     Mg  0.95520690  0.42770887  0.04616636     1.58000
H2003       H  0.51255095  0.05944277  0.13120111    -0.06300
C2004       C  0.89512696  0.00758382  0.06366557     0.92900
O2005       O  0.88179503  0.42487447  0.02073448    -0.82500
C2006       C  0.88403862  0.40124224  0.00921288     0.93000
O2007       O  0.53601848  0.11360893  0.00000042    -0.82500
Mg2008     Mg  0.57328047  0.03052544  0.06190776     1.58200
O2009       O  0.89926782  0.48490772  0.08039845    -0.80800
O2010       O  0.58400454  0.47099462  0.97610645    -0.82500
O2011       O  0.79942944  0.17827065  0.28128479    -0.88100
C2012       C  0.85142923  0.22388321  0.40507883     0.87900
Mg2013     Mg  0.76095247  0.12997345  0.28054228     1.58100
O2014       O  0.89041433  0.20722924  0.31040118    -0.87800
O2015       O  0.84244225  0.21326031  0.24169605    -0.75200
C2016       C  0.83033350  0.05923166  0.37724473     0.93000
O2017       O  0.77621299  0.16720446  0.39735775    -0.75000
O2018       O  0.80320614  0.05697562  0.37507347    -0.82500
Mg2019     Mg  0.79802337  0.20720730  0.34011092     1.58000
C2020       C  0.94307666  0.16799394  0.34638412     0.92900
O2021       O  0.81381134  0.24862433  0.28605235    -0.80800
H2022       H  0.90488748  0.21057558  0.23949179    -0.06100
C2023       C  0.85404554  0.14587014  0.42777129     0.87800
O2024       O  0.79429992  0.11408081  0.24859644    -0.75300
O2025       O  0.84445963  0.21933092  0.36072465    -0.88000
O2026       O  0.94140405  0.19247873  0.35279244    -0.80800
C2027       C  0.94223070  0.27781988  0.36480187     0.93000
C2028       C  0.83749360  0.27575524  0.29196517     0.92900
Mg2029     Mg  0.86946676  0.12765905  0.32824199     1.58000
O2030       O  0.85546621  0.08572682  0.38014635    -0.80800
O2031       O  0.88804435  0.16760671  0.27058547    -0.75000
O2032       O  0.91541400  0.27548959  0.35833916    -0.80800
O2033       O  0.75151057  0.19582184  0.31847921    -0.82600
O2034       O  0.74993465  0.06004148  0.32085221    -0.80900
C2035       C  0.89518698  0.19604692  0.27236773     0.87300
O2036       O  0.82207466  0.11496839  0.31155364    -0.88000
O2037       O  0.86856148  0.15626983  0.38785090    -0.88100
O2038       O  0.82504309  0.12423664  0.42926071    -0.75200
Mg2039     Mg  0.87831443  0.24268800  0.30271676     1.58000
O2040       O  0.94465392  0.25416818  0.37506442    -0.82500
H2041       H  0.80267537  0.18061067  0.20694098    -0.06300
O2042       O  0.77308659  0.12700448  0.35829348    -0.87800
H2043       H  0.75601863  0.12365157  0.42753363    -0.06100
H2044       H  0.82724749  0.10055373  0.24437340    -0.06300
C2045       C  0.76749990  0.13836675  0.39535161     0.87300
C2046       C  0.81410586  0.19013521  0.24193618     0.87900
C2047       C  0.81501717  0.10920141  0.26750230     0.87900
H2048       H  0.86612099  0.15582406  0.46220485    -0.06300
O2049       O  0.87292415  0.21943846  0.42236839    -0.75300
Mg2050     Mg  0.78838402  0.09364695  0.37050584     1.58000
H2051       H  0.83882192  0.23143218  0.42960273    -0.06300
C2052       C  0.72630944  0.17304332  0.30280809     0.92900
O2053       O  0.72218141  0.07682581  0.27958222    -0.82500
C2054       C  0.72661474  0.05463874  0.29399504     0.93000
O2055       O  0.86487681  0.27969248  0.29907751    -0.82500
Mg2056     Mg  0.90555430  0.20434188  0.38368566     1.58200
O2057       O  0.72345497  0.14608331  0.29579735    -0.80800
O2058       O  0.91884480  0.14099538  0.34360939    -0.82500
O2059       O  0.63881427  0.35320406  0.66164751    -0.88100
C2060       C  0.69702472  0.39090706  0.77797262     0.87900
Mg2061     Mg  0.60060009  0.30655123  0.66303911     1.58100
O2062       O  0.72377609  0.36870334  0.67253642    -0.87800
O2063       O  0.67871138  0.38534886  0.61434024    -0.75200
C2064       C  0.66047383  0.22211955  0.73206834     0.93000
O2065       O  0.62166636  0.33737170  0.77833900    -0.75000
O2066       O  0.63353951  0.21998424  0.72862516    -0.82500
Mg2067     Mg  0.64106639  0.37982088  0.72550840     1.58000
C2068       C  0.77282187  0.32334786  0.69496688     0.92900
O2069       O  0.65814601  0.42456523  0.67935915    -0.80800
H2070       H  0.73758235  0.37420626  0.60091640    -0.06100
C2071       C  0.69233407  0.30695043  0.78811067     0.87800
O2072       O  0.62943090  0.29073595  0.61574472    -0.75300
O2073       O  0.68704785  0.38820186  0.73525247    -0.88000
O2074       O  0.77364519  0.34923644  0.69764266    -0.80800
C2075       C  0.78315936  0.43724539  0.72097788     0.93000
C2076       C  0.68494291  0.44929895  0.67249900     0.92900
Mg2077     Mg  0.70115921  0.28981055  0.68580419     1.58000
O2078       O  0.68509089  0.24847783  0.73813217    -0.80800
O2079       O  0.72130114  0.33044628  0.62870166    -0.75000
O2080       O  0.75628740  0.43468171  0.72719827    -0.80800
O2081       O  0.59212942  0.37011978  0.71404062    -0.82600
O2082       O  0.58481790  0.23197842  0.67995253    -0.80900
C2083       C  0.72805083  0.35871033  0.63275924     0.87300
O2084       O  0.65581250  0.28214233  0.67219645    -0.88000
O2085       O  0.70446134  0.31860426  0.74726363    -0.88100
O2086       O  0.66337397  0.28538399  0.79181162    -0.75200
Mg2087     Mg  0.71771589  0.40841846  0.67246806     1.58000
O2088       O  0.78632606  0.41352995  0.72508995    -0.82500
H2089       H  0.63408155  0.35733733  0.58868671    -0.06300
O2090       O  0.61652358  0.29862528  0.73254460    -0.87800
H2091       H  0.60393450  0.29311716  0.80462293    -0.06100
H2092       H  0.65854150  0.27344489  0.60011357    -0.06300
C2093       C  0.61338409  0.30877843  0.77294651     0.87300
C2094       C  0.64957655  0.36499095  0.62035076     0.87900
C2095       C  0.64821413  0.28135373  0.62838405     0.87900
H2096       H  0.70651468  0.31491072  0.82108979    -0.06300
O2097       O  0.71787972  0.38369954  0.78832608    -0.75300
Mg2098     Mg  0.62442548  0.26021200  0.73289605     1.58000
H2099       H  0.68777751  0.39939892  0.80702506    -0.06300
C2100       C  0.56722734  0.34359897  0.71045642     0.92900
O2101       O  0.56009757  0.25827308  0.66328827    -0.82500
C2102       C  0.56058640  0.23310854  0.66692758     0.93000
O2103       O  0.71097773  0.44947689  0.67359422    -0.82500
Mg2104     Mg  0.74425111  0.36508050  0.73976113     1.58200
O2105       O  0.56786997  0.31858551  0.70435203    -0.80800
O2106       O  0.74782690  0.29731457  0.69991311    -0.82500
C2107       C  0.97620987  0.32874931  0.67295357    -0.05200
C2108       C  0.00418449  0.35153094  0.64927560    -0.32700
C2109       C  0.53304993  0.36237164  0.67782184     0.36600
C2110       C  0.53658095  0.34151924  0.70853396    -0.05600
C2111       C  0.50987338  0.31588309  0.73058971    -0.32600
C2112       C  0.97768787  0.30951121  0.70987090     0.36500
H2113       H  0.00337663  0.36660422  0.62103815     0.16900
O2114       O  0.55872571  0.38694962  0.65443851    -0.60100
H2115       H  0.51251795  0.29937935  0.75348385     0.16900
O2116       O  0.95055094  0.28717030  0.73365151    -0.60200
H2117       H  0.94920608  0.29702558  0.76500228     0.43900
H2118       H  0.56096432  0.37858900  0.62203090     0.43800
C2119       C  0.85789110  0.32432264  0.67093672    -0.05200
C2120       C  0.84551955  0.33361901  0.63239924    -0.32700
C2121       C  0.81765032  0.33399660  0.64042339     0.36600
C2122       C  0.80164915  0.32343673  0.68609351    -0.05600
C2123       C  0.81297445  0.31247599  0.72364917    -0.32600
C2124       C  0.84170673  0.31360468  0.71670031     0.36500
H2125       H  0.85807594  0.34152723  0.59702924     0.16900
O2126       O  0.80588718  0.34416326  0.60354832    -0.60100
H2127       H  0.80000876  0.30395060  0.75862695     0.16900
O2128       O  0.85351688  0.30338985  0.75363655    -0.60200
H2129       H  0.85743657  0.31755600  0.78220792     0.43900
H2130       H  0.81583777  0.36704007  0.60856820     0.43800
C2131       C  0.90989062  0.37768815  0.71249856    -0.05200
C2132       C  0.90860074  0.37928248  0.76446273    -0.32700
C2133       C  0.89487024  0.39508394  0.78768912     0.36600
C2134       C  0.88023616  0.40800325  0.75909400    -0.05600
C2135       C  0.88299033  0.40795392  0.70708645    -0.32600
C2136       C  0.89957267  0.39478943  0.68401804     0.36500
H2137       H  0.91550935  0.36596917  0.78744498     0.16900
O2138       O  0.89352303  0.39567628  0.83870087    -0.60100
H2139       H  0.87196242  0.41769867  0.68442577     0.16900
O2140       O  0.90270726  0.39598787  0.63319423    -0.60200
H2141       H  0.92546446  0.41134242  0.62621269     0.43900
H2142       H  0.87777490  0.37405173  0.84919782     0.43800
C2143       C  0.80646748  0.26173427  0.55165120    -0.05200
C2144       C  0.80595100  0.25420122  0.60222485    -0.32700
C2145       C  0.83423478  0.26233952  0.62743419     0.36600
C2146       C  0.86420639  0.28254913  0.60483024    -0.05600
C2147       C  0.86497304  0.28846583  0.55389292    -0.32600
C2148       C  0.83668702  0.27770900  0.52727541     0.36500
H2149       H  0.78370156  0.24269159  0.62296389     0.16900
O2150       O  0.83240773  0.25356059  0.67620271    -0.60100
H2151       H  0.88755606  0.30352111  0.53526978     0.16900
O2152       O  0.83897048  0.28396024  0.47740312    -0.60200
H2153       H  0.84986874  0.30708023  0.47459797     0.43900
H2154       H  0.82823628  0.23180215  0.67507342     0.43800
C2155       C  0.93111367  0.29104827  0.59548284    -0.05200
C2156       C  0.95677127  0.31028058  0.56429263    -0.32700
C2157       C  0.97352481  0.29873261  0.53837392     0.36600
C2158       C  0.96173378  0.26600712  0.53550587    -0.05600
C2159       C  0.93263000  0.24607693  0.56056527    -0.32600
C2160       C  0.91808002  0.25839505  0.59218263     0.36500
H2161       H  0.96607054  0.33528412  0.56412930     0.16900
O2162       O  0.50501300  0.32029188  0.54548971    -0.60100
H2163       H  0.92146236  0.22102124  0.55689246     0.16900
O2164       O  0.89230157  0.23853086  0.62117307    -0.60200
H2165       H  0.87417057  0.22879391  0.59816300     0.43900
H2166       H  0.51908134  0.32220501  0.57322934     0.43800
C2167       C  0.80986111  0.46774068  0.70666791    -0.05200
C2168       C  0.81201105  0.49446321  0.72804372    -0.32700
C2169       C  0.83878723  0.01946810  0.68964228     0.36600
C2170       C  0.86512180  0.02805585  0.65761446    -0.05600
C2171       C  0.85495500  0.50041852  0.65282388    -0.32600
C2172       C  0.83099307  0.47073431  0.66800873     0.36500
H2173       H  0.79533710  0.49229792  0.75695302     0.16900
O2174       O  0.83835881  0.04032456  0.72305624    -0.60100
H2175       H  0.87198216  0.50257989  0.62440053     0.16900
O2176       O  0.82775284  0.44490663  0.64381714    -0.60200
H2177       H  0.84152606  0.43905152  0.66195264     0.43900
H2178       H  0.81654743  0.03715321  0.72365632     0.43800
C2179       C  0.98059641  0.14538034  0.65537571    -0.05200
C2180       C  0.98421035  0.16567300  0.69419114    -0.32700
C2181       C  0.50988242  0.19489455  0.70417130     0.36600
C2182       C  0.53126999  0.20389380  0.66369422    -0.05600
C2183       C  0.52683035  0.18302636  0.62542705    -0.32600
C2184       C  0.50039130  0.15294632  0.62694647     0.36500
H2185       H  0.96699888  0.15794902  0.72461596     0.16900
O2186       O  0.51362233  0.21561475  0.74115128    -0.60100
H2187       H  0.54379011  0.19004027  0.59474001     0.16900
O2188       O  0.49469050  0.13280921  0.58809269    -0.60200
H2189       H  0.51355259  0.13019331  0.58540228     0.43900
H2190       H  0.02927188  0.21790748  0.75149383     0.43800
C2191       C  0.88573731  0.47626828  0.78501917    -0.05200
C2192       C  0.87757621  0.49917509  0.79800170    -0.32700
C2193       C  0.89207539  0.03236715  0.76716405     0.36600
C2194       C  0.91285182  0.03772118  0.72694178    -0.05600
C2195       C  0.92363825  0.01647129  0.71953135    -0.32600
C2196       C  0.91023141  0.48556621  0.74808955     0.36500
H2197       H  0.85920906  0.49464015  0.82520235     0.16900
O2198       O  0.88481360  0.05484806  0.78071656    -0.60100
H2199       H  0.94140825  0.02116156  0.69090222     0.16900
O2200       O  0.92503246  0.46873503  0.73976245    -0.60200
H2201       H  0.94220305  0.47643997  0.76452414     0.43900
H2202       H  0.88838254  0.05789841  0.81694418     0.43800
C2203       C  0.80895226  0.05103935  0.54562408    -0.05200
C2204       C  0.83837982  0.06433735  0.51979024    -0.32700
C2205       C  0.86725540  0.07554330  0.54508604     0.36600
C2206       C  0.86790859  0.07829394  0.59731512    -0.05600
C2207       C  0.83899472  0.06949634  0.62210065    -0.32600
C2208       C  0.80970512  0.05195970  0.59800796     0.36500
H2209       H  0.83866588  0.06282053  0.47972367     0.16900
O2210       O  0.89368132  0.08016811  0.51903191    -0.60100
H2211       H  0.83910919  0.07388665  0.66125712     0.16900
O2212       O  0.77654805  0.52987326  0.62823471    -0.60200
H2213       H  0.77588644  0.54464584  0.65257573     0.43900
H2214       H  0.89639750  0.09435614  0.49089107     0.43800
C2215       C  0.96480990  0.20168738  0.55186583    -0.05200
C2216       C  0.95249649  0.19788333  0.60067852    -0.32700
C2217       C  0.93413682  0.16771179  0.62215737     0.36600
C2218       C  0.93094919  0.14100358  0.59726428    -0.05600
C2219       C  0.94307175  0.14512882  0.54850565    -0.32600
C2220       C  0.95793462  0.17444712  0.52506925     0.36500
H2221       H  0.95787691  0.21825770  0.62271189     0.16900
O2222       O  0.92280384  0.16503312  0.66994319    -0.60100
H2223       H  0.94413720  0.12633041  0.52993728     0.16900
O2224       O  0.96888175  0.17673716  0.47710261    -0.60200
H2225       H  0.95354997  0.17911179  0.45645836     0.43900
H2226       H  0.89976203  0.15731437  0.66664044     0.43800
C2227       C  0.97004012  0.37685934  0.72139453    -0.05200
C2228       C  0.97233390  0.37078605  0.77144072    -0.32700
C2229       C  0.00073848  0.38862068  0.79676881     0.36600
C2230       C  0.52808127  0.40625945  0.79328993    -0.05600
C2231       C  0.52230194  0.41879214  0.75024235    -0.32600
C2232       C  0.49217848  0.40428689  0.72828167     0.36500
H2233       H  0.95268471  0.35100621  0.79023115     0.16900
O2234       O  0.00180568  0.38219268  0.84604842    -0.60100
H2235       H  0.54064329  0.43835325  0.73065501     0.16900
O2236       O  0.48846177  0.41557113  0.68394634    -0.60200
H2237       H  0.48356125  0.43208778  0.69320167     0.43900
H2238       H  0.99713761  0.39683195  0.86453446     0.43800
C2239       C  0.97655753  0.09590643  0.71559527    -0.05200
C2240       C  0.50467023  0.10208248  0.69911925    -0.32700
C2241       C  0.53485858  0.11736661  0.72060428     0.36600
C2242       C  0.53776869  0.12117516  0.77238592    -0.05600
C2243       C  0.00561721  0.11245460  0.79295872    -0.32600
C2244       C  0.97698371  0.10028616  0.76735434     0.36500
H2245       H  0.50307710  0.09946068  0.65918865     0.16900
O2246       O  0.56124242  0.13094021  0.69029489    -0.60100
H2247       H  0.00557666  0.11715383  0.83234368     0.16900
O2248       O  0.95058579  0.09684912  0.79208080    -0.60200
H2249       H  0.94637330  0.08183309  0.81957006     0.43900
H2250       H  0.56315784  0.15092096  0.67908324     0.43800
C2251       C  0.66353798  0.19421106  0.72463552    -0.05200
C2252       C  0.63986403  0.16930376  0.69785009    -0.32700
C2253       C  0.64271073  0.14352548  0.68515054     0.36600
C2254       C  0.66999601  0.14256311  0.69850399    -0.05600
C2255       C  0.69426471  0.16771562  0.72421881    -0.32600
C2256       C  0.69119082  0.19348572  0.73740613     0.36500
H2257       H  0.61961796  0.17041278  0.68478333     0.16900
O2258       O  0.62000407  0.12021806  0.65643341    -0.60100
H2259       H  0.71521919  0.16698603  0.73495956     0.16900
O2260       O  0.71504440  0.21747591  0.76337176    -0.60200
H2261       H  0.73149653  0.23046574  0.73803040     0.43900
H2262       H  0.59931163  0.11298606  0.67398834     0.43800
C2263       C  0.67460817  0.03042715  0.66166413    -0.05200
C2264       C  0.66392548  0.50945952  0.63603276    -0.32700
C2265       C  0.66654820  0.48276195  0.63390640     0.36600
C2266       C  0.68565402  0.47891230  0.66816833    -0.05600
C2267       C  0.70252372  0.50211474  0.70352166    -0.32600
C2268       C  0.69342012  0.02455158  0.69372244     0.36500
H2269       H  0.64981667  0.51262141  0.60855435     0.16900
O2270       O  0.65068135  0.46073501  0.59810496    -0.60100
H2271       H  0.71745156  0.49928676  0.72997856     0.16900
O2272       O  0.70847487  0.04404459  0.73282393    -0.60200
H2273       H  0.73013063  0.05916770  0.72002583     0.43900
H2274       H  0.62873162  0.44759804  0.61153115     0.43800
C2275       C  0.62713576  0.02823764  0.73258341    -0.05200
C2276       C  0.62624747  0.02723594  0.78488307    -0.32700
C2277       C  0.60826305  0.50133066  0.81594231     0.36600
C2278       C  0.59499631  0.47286351  0.78956032    -0.05600
C2279       C  0.59734268  0.47434530  0.73754877    -0.32600
C2280       C  0.60775553  0.00012789  0.70715811     0.36500
H2281       H  0.64052956  0.04825326  0.80606700     0.16900
O2282       O  0.60604085  0.50090116  0.86678771    -0.60100
H2283       H  0.58983159  0.45333166  0.71592628     0.16900
O2284       O  0.60187885  0.00031320  0.65760148    -0.60200
H2285       H  0.58756864  0.50774576  0.66022101     0.43900
H2286       H  0.58605199  0.99657606  0.87065090     0.43800
C2287       C  0.62988158  0.08856428  0.75622837    -0.05200
C2288       C  0.64567551  0.11029981  0.79358381    -0.32700
C2289       C  0.63194002  0.12604727  0.81658005     0.36600
C2290       C  0.59950783  0.11685477  0.80843123    -0.05600
C2291       C  0.58179970  0.09012446  0.77861903    -0.32600
C2292       C  0.59690656  0.07640696  0.75171634     0.36500
H2293       H  0.67085481  0.11919845  0.79848759     0.16900
O2294       O  0.65224469  0.15347222  0.84003573    -0.60100
H2295       H  0.55665199  0.08073525  0.77370285     0.16900
O2296       O  0.57969766  0.05209720  0.71985422    -0.60200
H2297       H  0.57147704  0.06032506  0.69404973     0.43900
H2298       H  0.66085339  0.14752656  0.86830731     0.43800
C2299       C  0.71418271  0.08335227  0.60252579    -0.05200
C2300       C  0.74401773  0.08750053  0.61432275    -0.32700
C2301       C  0.75980306  0.07713832  0.58198435     0.36600
C2302       C  0.74266346  0.05516828  0.54424108    -0.05600
C2303       C  0.71530581  0.05580083  0.52834148    -0.32600
C2304       C  0.70159700  0.07018253  0.55624817     0.36500
H2305       H  0.75556164  0.09951687  0.64808476     0.16900
O2306       O  0.79222914  0.09325727  0.58239358    -0.60100
H2307       H  0.69664182  0.53557946  0.50428486     0.16900
O2308       O  0.67361901  0.06755993  0.54103737    -0.60200
H2309       H  0.67560454  0.58200878  0.53375709     0.43900
H2310       H  0.79894840  0.10852237  0.55453186     0.43800
C2311       C  0.70967491  0.14185138  0.61633422    -0.05200
C2312       C  0.69096071  0.15295508  0.59650351    -0.32700
C2313       C  0.70458667  0.18363511  0.58078212     0.36600
C2314       C  0.73664624  0.19991693  0.56399967    -0.05600
C2315       C  0.75556625  0.18684273  0.57634171    -0.32600
C2316       C  0.74295875  0.15975603  0.60710150     0.36500
H2317       H  0.66542242  0.13909232  0.59892130     0.16900
O2318       O  0.68574726  0.19694150  0.57962177    -0.60100
H2319       H  0.78009449  0.19787174  0.56389281     0.16900
O2320       O  0.76326948  0.15241228  0.63009124    -0.60200
H2321       H  0.77761713  0.15226750  0.60362160     0.43900
H2322       H  0.69111572  0.20992603  0.60999069     0.43800
C2323       C  0.50766117  0.14025826  0.99125445    -0.05200
C2324       C  0.98731228  0.14284444  0.98131673    -0.32700
C2325       C  0.98394693  0.16906792  0.97534632     0.36600
C2326       C  0.49817105  0.19144916  0.98764667    -0.05600
C2327       C  0.52039109  0.19154391  0.02013866    -0.32600
C2328       C  0.52515794  0.16609305  0.02224611     0.36500
H2329       H  0.97396174  0.12257177  0.95799076     0.16900
O2330       O  0.96460063  0.16933620  0.93889859    -0.60100
H2331       H  0.53385570  0.21137938  0.04421588     0.16900
O2332       O  0.54493967  0.16557130  0.05749586    -0.60200
H2333       H  0.56541608  0.17230692  0.03993837     0.43900
H2334       H  0.94461811  0.14873664  0.94025447     0.43800
C2335       C  0.50054873  0.30779906  0.00111066    -0.05200
C2336       C  0.97350714  0.31179098  0.97351309    -0.32700
C2337       C  0.97011939  0.33781482  0.97935096     0.36600
C2338       C  0.49746461  0.36131244  0.02088135    -0.05600
C2339       C  0.51228535  0.35164550  0.05469298    -0.32600
C2340       C  0.51244152  0.32389816  0.04613237     0.36500
H2341       H  0.95735743  0.29323869  0.94947067     0.16900
O2342       O  0.94717923  0.33979918  0.95335498    -0.60100
H2343       H  0.52246864  0.36484683  0.08828143     0.16900
O2344       O  0.52357083  0.31222294  0.08183289    -0.60200
H2345       H  0.54674872  0.32714284  0.08345259     0.43900
H2346       H  0.92755224  0.32859321  0.97412004     0.43800
C2347       C  0.58185221  0.36089138  0.87931336    -0.05200
C2348       C  0.56728689  0.33210577  0.85414058    -0.32700
C2349       C  0.54732900  0.30385382  0.87943748     0.36600
C2350       C  0.54519547  0.30330120  0.93192037    -0.05600
C2351       C  0.56387114  0.33156302  0.95714993    -0.32600
C2352       C  0.57838573  0.36011960  0.93150799     0.36500
H2353       H  0.56750277  0.33199197  0.81391841     0.16900
O2354       O  0.52705524  0.27805971  0.85236305    -0.60100
H2355       H  0.56382207  0.33191616  0.99725952     0.16900
O2356       O  0.58625817  0.38689547  0.95754604    -0.60200
H2357       H  0.56685985  0.38863950  0.95773838     0.43900
H2358       H  0.98852901  0.26902242  0.86083874     0.43800
C2359       C  0.53836685  0.23972597  0.91891722    -0.05200
C2360       C  0.52254240  0.21789083  0.88168784    -0.32700
C2361       C  0.53626391  0.20234539  0.85821971     0.36600
C2362       C  0.56894017  0.21223479  0.86483289    -0.05600
C2363       C  0.58649326  0.23879033  0.89504542    -0.32600
C2364       C  0.57119098  0.25147479  0.92388581     0.36500
H2365       H  0.99626203  0.21580062  0.88361062     0.16900
O2366       O  0.51632416  0.17595597  0.83217886    -0.60100
H2367       H  0.61184359  0.24908565  0.89830703     0.16900
O2368       O  0.58808086  0.27394191  0.95853196    -0.60200
H2369       H  0.60083232  0.29356642  0.93919548     0.43900
H2370       H  0.00078691  0.16341306  0.85646743     0.43800
C2371       C  0.63614818  0.13442046  0.03583718    -0.05200
C2372       C  0.64381726  0.15923845  0.06825278    -0.32700
C2373       C  0.66922238  0.18892330  0.05683409     0.36600
C2374       C  0.68584875  0.19393273  0.01145914    -0.05600
C2375       C  0.67521091  0.17006134  0.97620143    -0.32600
C2376       C  0.65103057  0.14000754  0.98880433     0.36500
H2377       H  0.63056028  0.15526699  0.10267623     0.16900
O2378       O  0.67769961  0.21296476  0.08976301    -0.60100
H2379       H  0.68757898  0.17422767  0.94076655     0.16900
O2380       O  0.64273361  0.11608516  0.95567517    -0.60200
H2381       H  0.62260563  0.11235154  0.94086819     0.43900
H2382       H  0.69247889  0.21152452  0.11304424     0.43800
C2383       C  0.85563383  0.37019603  0.00497228    -0.05200
C2384       C  0.85912966  0.34530601  0.98719818    -0.32700
C2385       C  0.83315078  0.31504574  0.98554457     0.36600
C2386       C  0.80310213  0.30967360  0.00039045    -0.05600
C2387       C  0.79945178  0.33432665  0.01818720    -0.32600
C2388       C  0.82565240  0.36423609  0.02219434     0.36500
H2389       H  0.88216498  0.34905562  0.97535565     0.16900
O2390       O  0.83727535  0.29070510  0.97085182    -0.60100
H2391       H  0.77632907  0.32995483  0.03091945     0.16900
O2392       O  0.82187807  0.38698119  0.04496862    -0.60200
H2393       H  0.82510829  0.38511423  0.08081443     0.43900
H2394       H  0.84682692  0.29608985  0.93693853     0.43800
C2395       C  0.75863426  0.29758363  0.92405097    -0.05200
C2396       C  0.74578204  0.31746026  0.92225096    -0.32700
C2397       C  0.75997557  0.34481568  0.89198483     0.36600
C2398       C  0.78926204  0.35434532  0.86627329    -0.05600
C2399       C  0.79995382  0.33257527  0.86530520    -0.32600
C2400       C  0.78417403  0.30420917  0.89145012     0.36500
H2401       H  0.72534067  0.31234841  0.94547134     0.16900
O2402       O  0.74483669  0.36171977  0.88857903    -0.60100
H2403       H  0.82157813  0.33774534  0.84556566     0.16900
O2404       O  0.79571260  0.28408015  0.88815208    -0.60200
H2405       H  0.78366013  0.26949796  0.86101569     0.43900
H2406       H  0.74294121  0.36446308  0.85256973     0.43800
C2407       C  0.69197250  0.24114711  0.94264790    -0.05200
C2408       C  0.66425927  0.23537955  0.96900755    -0.32700
C2409       C  0.63417659  0.21841654  0.94728568     0.36600
C2410       C  0.63181932  0.20943129  0.89724604    -0.05600
C2411       C  0.65994678  0.21884687  0.86941149    -0.32600
C2412       C  0.68972982  0.23394719  0.89183564     0.36500
H2413       H  0.66560223  0.24080769  0.00823992     0.16900
O2414       O  0.60724326  0.20838932  0.97606806    -0.60100
H2415       H  0.65848337  0.21143589  0.83125172     0.16900
O2416       O  0.71581297  0.23786654  0.86546975    -0.60200
H2417       H  0.72190243  0.25606197  0.84328431     0.43900
H2418       H  0.60794412  0.22761983  0.98853256     0.43800
C2419       C  0.80950855  0.00011055  0.01306353    -0.05200
C2420       C  0.81000122  0.47769966  0.04651742    -0.32700
C2421       C  0.83697158  0.47966824  0.06697135     0.36600
C2422       C  0.86549268  0.00519822  0.04814921    -0.05600
C2423       C  0.86677845  0.02568721  0.01106525    -0.32600
C2424       C  0.83885350  0.02295345  0.99289548     0.36500
H2425       H  0.78685767  0.46043962  0.06111344     0.16900
O2426       O  0.83360214  0.45799372  0.10167977    -0.60100
H2427       H  0.88943724  0.04343108  0.99547373     0.16900
O2428       O  0.84020966  0.04247929  0.95556426    -0.60200
H2429       H  0.85191020  0.06391668  0.96931429     0.43900
H2430       H  0.83465006  0.44143167  0.08252781     0.51300
C2431       C  0.69040546  0.99235195  0.98671097    -0.05200
C2432       C  0.67519644  0.48071577  0.00435601    -0.32700
C2433       C  0.64539074  0.47799926  0.00496100     0.36600
C2434       C  0.63288807  0.98986823  0.00269732    -0.05600
C2435       C  0.65142051  0.00542353  0.96077596    -0.32600
C2436       C  0.67948424  0.00523208  0.95105318     0.36500
H2437       H  0.68023032  0.46737186  0.03081920     0.16900
O2438       O  0.62271863  0.45787130  0.03830132    -0.60100
H2439       H  0.64418192  0.01769694  0.93580842     0.16900
O2440       O  0.69750309  0.02004016  0.90941470    -0.60200
H2441       H  0.68359826  0.00969136  0.88065290     0.43900
H2442       H  0.61169641  0.43738304  0.02110850     0.43800
C2443       C  0.71013756  0.45741031  0.91733246    -0.05200
C2444       C  0.70639623  0.46617106  0.86969625    -0.32700
C2445       C  0.67714971  0.44994924  0.84591651     0.36600
C2446       C  0.64984202  0.42630241  0.87150428    -0.05600
C2447       C  0.65534673  0.41439029  0.91547382    -0.32600
C2448       C  0.68524318  0.42964018  0.93812871     0.36500
H2449       H  0.72532583  0.48724784  0.85251414     0.16900
O2450       O  0.67485036  0.45937168  0.79908745    -0.60100
H2451       H  0.63685012  0.39463318  0.93473002     0.16900
O2452       O  0.68868543  0.41946215  0.98370318    -0.60200
H2453       H  0.69592263  0.40438776  0.97629612     0.43900
H2454       H  0.67287020  0.44248147  0.77692284     0.43800
C2455       C  0.77029568  0.45715478  0.93414792    -0.05200
C2456       C  0.77187951  0.43326273  0.96000151    -0.32700
C2457       C  0.78698330  0.41799528  0.93856274     0.36600
C2458       C  0.79753364  0.42404849  0.88872521    -0.05600
C2459       C  0.79219915  0.44512664  0.86129651    -0.32600
C2460       C  0.77983318  0.46231603  0.88389813     0.36500
H2461       H  0.76311584  0.42770928  0.99789615     0.16900
O2462       O  0.79304875  0.39876902  0.96711310    -0.60100
H2463       H  0.80066643  0.45059770  0.82312703     0.16900
O2464       O  0.78004477  0.48621167  0.85793563    -0.60200
H2465       H  0.76512102  0.47596213  0.83035338     0.43900
H2466       H  0.77211313  0.38214443  0.98016446     0.43800
C2467       C  0.95004278  0.25893243  0.06050901    -0.05200
C2468       C  0.95691330  0.27041844  0.10911778    -0.32700
C2469       C  0.93959338  0.28247445  0.13267475     0.36600
C2470       C  0.91964304  0.28946659  0.10482371    -0.05600
C2471       C  0.91126002  0.27660591  0.05698969    -0.32600
C2472       C  0.92434482  0.25905392  0.03675940     0.36500
H2473       H  0.97724138  0.27236563  0.12779830     0.16900
O2474       O  0.94510341  0.29084907  0.18170276    -0.60100
H2475       H  0.89548255  0.28091240  0.03482673     0.16900
O2476       O  0.91477207  0.24562413  0.99094714    -0.60200
H2477       H  0.90261270  0.22277249  0.99743246     0.43900
H2478       H  0.92508506  0.27614552  0.19958836     0.43800
C2479       C  0.85375637  0.29095993  0.12578283    -0.05200
C2480       C  0.84293581  0.26168886  0.10285415    -0.32700
C2481       C  0.81562318  0.24829948  0.07292423     0.36600
C2482       C  0.79640368  0.26210181  0.07067484    -0.05600
C2483       C  0.80430264  0.28803191  0.10068543    -0.32600
C2484       C  0.83385432  0.30419150  0.12325624     0.36500
H2485       H  0.85631985  0.24982628  0.10588758     0.16900
O2486       O  0.80883609  0.22266232  0.04466719    -0.60100
H2487       H  0.78945229  0.29853504  0.10069778     0.16900
O2488       O  0.84492076  0.33483069  0.13602030    -0.60200
H2489       H  0.82932093  0.33465304  0.16014221     0.43900
H2490       H  0.81994174  0.23123316  0.01229367     0.43800
C2491       C  0.82912604  0.47344641  0.32675933    -0.05200
C2492       C  0.85651884  0.99812892  0.37761917    -0.32700
C2493       C  0.85498771  0.02494380  0.39075873     0.36600
C2494       C  0.83270012  0.03094255  0.36804871    -0.05600
C2495       C  0.81399406  0.01111245  0.33020012    -0.32600
C2496       C  0.80735305  0.47897295  0.30145319     0.36500
H2497       H  0.87244106  0.99278484  0.39731926     0.16900
O2498       O  0.87442250  0.04430507  0.42698863    -0.60100
H2499       H  0.79787526  0.01617043  0.31052057     0.16900
O2500       O  0.78764576  0.45804708  0.26675681    -0.60200
H2501       H  0.78712071  0.47043120  0.23825441     0.43900
H2502       H  0.89434745  0.05945570  0.40933882     0.43800
C2503       C  0.82595777  0.35526191  0.31131403    -0.05200
C2504       C  0.83920045  0.34605412  0.34866664    -0.32700
C2505       C  0.84356566  0.32061400  0.34149182     0.36600
C2506       C  0.83262345  0.30257611  0.29798707    -0.05600
C2507       C  0.81655316  0.30992408  0.26261765    -0.32600
C2508       C  0.81422085  0.33694660  0.26822861     0.36500
H2509       H  0.84803415  0.35990283  0.38207735     0.16900
O2510       O  0.85929001  0.31399721  0.37690261    -0.60100
H2511       H  0.80741388  0.29573133  0.22962943     0.16900
O2512       O  0.80169865  0.34619337  0.23101463    -0.60200
H2513       H  0.77995520  0.32840315  0.22559701     0.43900
H2514       H  0.84425933  0.29220322  0.38766323     0.43800
C2515       C  0.75564902  0.45251138  0.44031085    -0.05200
C2516       C  0.74599992  0.44240737  0.39127902    -0.32700
C2517       C  0.75678519  0.42446670  0.36527396     0.36600
C2518       C  0.78215871  0.42153261  0.38385436    -0.05600
C2519       C  0.79083991  0.43047513  0.43318702    -0.32600
C2520       C  0.77597221  0.44322519  0.46236057     0.36500
H2521       H  0.73090097  0.44905420  0.37224676     0.16900
O2522       O  0.74420897  0.41208707  0.31997206    -0.60100
H2523       H  0.81048857  0.42928521  0.44880370     0.16900
O2524       O  0.78228722  0.44762926  0.51233942    -0.60200
H2525       H  0.80571296  0.46111490  0.51505005     0.43900
H2526       H  0.72334342  0.39327351  0.32763447     0.43800
C2527       C  0.75782414  0.30459385  0.43645423    -0.05200
C2528       C  0.75028672  0.30341178  0.38586549    -0.32700
C2529       C  0.76057703  0.33102578  0.35805634     0.36600
C2530       C  0.78213566  0.36033865  0.37868779    -0.05600
C2531       C  0.78824084  0.36154332  0.42953122    -0.32600
C2532       C  0.77449671  0.33442728  0.45878481     0.36500
H2533       H  0.73709402  0.28123167  0.36738594     0.16900
O2534       O  0.75174292  0.32891975  0.30946735    -0.60100
H2535       H  0.80543045  0.38318144  0.44642133     0.16900
O2536       O  0.77945463  0.33733203  0.50899574    -0.60200
H2537       H  0.76256951  0.34090117  0.52297925     0.43900
H2538       H  0.73590614  0.33590323  0.30924264     0.43800
C2539       C  0.87885089  0.40923490  0.26639482    -0.05200
C2540       C  0.89693703  0.40044094  0.29573970    -0.32700
C2541       C  0.91239055  0.38529569  0.27479555     0.36600
C2542       C  0.91302991  0.38168350  0.22292521    -0.05600
C2543       C  0.89911533  0.39481958  0.19321578    -0.32600
C2544       C  0.88153438  0.40764053  0.21427636     0.36500
H2545       H  0.89590172  0.40192263  0.33583151     0.16900
O2546       O  0.92400399  0.37142470  0.30546602    -0.60100
H2547       H  0.89874954  0.39184840  0.15323962     0.16900
O2548       O  0.86415503  0.41501538  0.18352163    -0.60200
H2549       H  0.87992116  0.43438599  0.16588582     0.43900
H2550       H  0.94323444  0.38889049  0.32053528     0.43800
C2551       C  0.64024088  0.47247481  0.30404292    -0.05200
C2552       C  0.64248820  0.50006730  0.32244608    -0.32700
C2553       C  0.70521980  0.99673347  0.30839509     0.36600
C2554       C  0.70365929  0.02111725  0.28345782    -0.05600
C2555       C  0.68009426  0.01216042  0.24783127    -0.32600
C2556       C  0.66568900  0.47458764  0.27541577     0.36500
H2557       H  0.62391122  0.49892856  0.34638040     0.16900
O2558       O  0.73071594  0.00247525  0.33678077    -0.60100
H2559       H  0.68009293  0.02918078  0.22329531     0.16900
O2560       O  0.66443547  0.44811828  0.25714638    -0.60200
H2561       H  0.65269785  0.96278459  0.18071963     0.43900
H2562       H  0.67801368  0.55784377  0.36356446     0.43800
C2563       C  0.51962993  0.35793535  0.33460960    -0.05200
C2564       C  0.51005650  0.33032078  0.30782969    -0.32700
C2565       C  0.98865549  0.30789005  0.30930427     0.36600
C2566       C  0.97107670  0.30716279  0.35184123    -0.05600
C2567       C  0.98081301  0.33440294  0.37955133    -0.32600
C2568       C  0.50149416  0.35724331  0.37644845     0.36500
H2569       H  0.52384425  0.33012289  0.27609893     0.16900
O2570       O  0.97979869  0.28141570  0.28179284    -0.60100
H2571       H  0.96700685  0.33411635  0.41174333     0.16900
O2572       O  0.50976274  0.38408587  0.40242335    -0.60200
H2573       H  0.02773727  0.38363735  0.42639225     0.43900
H2574       H  0.95959222  0.27649444  0.26597350     0.43800
C2575       C  0.57391897  0.36165900  0.38066199    -0.05200
C2576       C  0.56532062  0.33313514  0.35643155    -0.32700
C2577       C  0.54950554  0.30409898  0.38210446     0.36600
C2578       C  0.54635555  0.30333702  0.43432279    -0.05600
C2579       C  0.55904560  0.33237184  0.45909592    -0.32600
C2580       C  0.57153702  0.36100506  0.43291766     0.36500
H2581       H  0.56765268  0.33304863  0.31635454     0.16900
O2582       O  0.03924547  0.27616287  0.34432256    -0.60100
H2583       H  0.55696796  0.33262742  0.49917177     0.16900
O2584       O  0.57868265  0.38770261  0.45849983    -0.60200
H2585       H  0.59863511  0.39355389  0.47614709     0.43900
H2586       H  0.05694169  0.27457440  0.32865359     0.43800
C2587       C  0.69050887  0.45758975  0.44089193    -0.05200
C2588       C  0.67761468  0.42629752  0.42470498    -0.32700
C2589       C  0.65083315  0.41243440  0.39281216     0.36600
C2590       C  0.63372399  0.42805532  0.38342487    -0.05600
C2591       C  0.64368658  0.45638587  0.40744776    -0.32600
C2592       C  0.67357212  0.47280549  0.42787017     0.36500
H2593       H  0.68880707  0.41303476  0.43476820     0.16900
O2594       O  0.64262778  0.38469297  0.36975842    -0.60100
H2595       H  0.62990288  0.46787626  0.40482137     0.16900
O2596       O  0.68293168  0.00269080  0.43555754    -0.60200
H2597       H  0.69821546  0.01380238  0.40793069     0.43900
H2598       H  0.63585626  0.36892097  0.39685028     0.43800
C2599       C  0.52828346  0.40110397  0.25360026    -0.05200
C2600       C  0.03293499  0.38782606  0.21203823    -0.32700
C2601       C  0.00407697  0.37303771  0.18707913     0.36600
C2602       C  0.98007698  0.38120524  0.19669057    -0.05600
C2603       C  0.48231428  0.40173239  0.22030697    -0.32600
C2604       C  0.50842883  0.41416064  0.25258306     0.36500
H2605       H  0.05021323  0.38063175  0.20411080     0.16900
O2606       O  0.99956970  0.34934123  0.15561483    -0.60100
H2607       H  0.46848505  0.41315950  0.21813079     0.16900
O2608       O  0.51305115  0.43747987  0.28490649    -0.60200
H2609       H  0.51483650  0.45478185  0.26394682     0.43900
H2610       H  0.00189557  0.33393599  0.17592119     0.43800
C2611       C  0.91998424  0.14281678  0.12098028    -0.05200
C2612       C  0.93634019  0.17194966  0.14515573    -0.32700
C2613       C  0.95509714  0.19975864  0.11789941     0.36600
C2614       C  0.95272774  0.19964060  0.06572510    -0.05600
C2615       C  0.93229648  0.17131889  0.04252004    -0.32600
C2616       C  0.92012836  0.14294360  0.06846611     0.36500
H2617       H  0.93814374  0.17267916  0.18530136     0.16900
O2618       O  0.97870179  0.22539530  0.14151767    -0.60100
H2619       H  0.92942631  0.17102887  0.00284504     0.16900
O2620       O  0.91148551  0.11582972  0.04253409    -0.60200
H2621       H  0.89920891  0.11574403  0.01333530     0.43900
H2622       H  0.96892166  0.22833549  0.17221960     0.43800
C2623       C  0.85235151  0.07580464  0.12199424    -0.05200
C2624       C  0.84660883  0.09085657  0.08238320    -0.32700
C2625       C  0.81959305  0.07435596  0.05272884     0.36600
C2626       C  0.79712097  0.04312547  0.06435688    -0.05600
C2627       C  0.79899702  0.03110900  0.11039213    -0.32600
C2628       C  0.82551819  0.04794526  0.14023498     0.36500
H2629       H  0.86264707  0.11473580  0.07271650     0.16900
O2630       O  0.81674241  0.08805191  0.01040639    -0.60100
H2631       H  0.78094310  0.50105458  0.10977307     0.16900
O2632       O  0.82603329  0.03569840  0.18563343    -0.60200
H2633       H  0.81572559  0.49956864  0.16751369     0.43900
H2634       H  0.80466064  0.09835423  0.02093628     0.43800
C2635       C  0.87300046  0.46773542  0.25910112    -0.05200
C2636       C  0.90505373  0.48871005  0.26972278    -0.32700
C2637       C  0.92182816  0.01759354  0.23234653     0.36600
C2638       C  0.90174978  0.02573679  0.20611273    -0.05600
C2639       C  0.86936487  0.00138927  0.20329307    -0.32600
C2640       C  0.85972625  0.47436151  0.21839726     0.36500
H2641       H  0.91679384  0.48270249  0.29780560     0.16900
O2642       O  0.95419457  0.03414237  0.22637643    -0.60100
H2643       H  0.85145058  0.00347446  0.18402592     0.16900
O2644       O  0.82894555  0.45420689  0.20484804    -0.60200
H2645       H  0.82749732  0.93897200  0.18875426     0.43900
H2646       H  0.96282705  0.53106829  0.21825195     0.43800
C2647       C  0.73944383  0.19609309  0.05701714    -0.05200
C2648       C  0.73860035  0.19354334  0.10907456    -0.32700
C2649       C  0.72503735  0.16390793  0.13237211     0.36600
C2650       C  0.70877816  0.13605914  0.10427538    -0.05600
C2651       C  0.71194581  0.13923845  0.05233178    -0.32600
C2652       C  0.72996321  0.16865032  0.02935449     0.36500
H2653       H  0.74692445  0.21424164  0.13176343     0.16900
O2654       O  0.72596796  0.16240978  0.18298416    -0.60100
H2655       H  0.69820007  0.11976235  0.02862746     0.16900
O2656       O  0.73425851  0.17035610  0.97868552    -0.60200
H2657       H  0.75089969  0.16479838  0.97225033     0.43900
H2658       H  0.74599148  0.16264689  0.18985212     0.43800
C2659       C  0.73711721  0.04285422  0.04638045    -0.05200
C2660       C  0.73624132  0.04321609  0.09861518    -0.32700
C2661       C  0.72384888  0.05961274  0.12403090     0.36600
C2662       C  0.70689553  0.07120703  0.09823184    -0.05600
C2663       C  0.70798749  0.07078389  0.04609445    -0.32600
C2664       C  0.72647012  0.06057927  0.02095279     0.36500
H2665       H  0.74426747  0.03020016  0.12007033     0.16900
O2666       O  0.72669871  0.06247220  0.17448514    -0.60100
H2667       H  0.69300274  0.07605050  0.02423235     0.16900
O2668       O  0.73228248  0.06632399  0.97103378    -0.60200
H2669       H  0.75307336  0.08599100  0.96847427     0.43900
H2670       H  0.74615337  0.08294907  0.17985765     0.43800
C2671       C  0.58649667  0.46290923  0.24906422    -0.05200
C2672       C  0.59649852  0.46353099  0.19978368    -0.32700
C2673       C  0.60874531  0.49094138  0.17072711     0.36600
C2674       C  0.61382733  0.02295086  0.21259940    -0.05600
C2675       C  0.61912784  0.02185124  0.26349912    -0.32600
C2676       C  0.60721109  0.99328441  0.28937967     0.36500
H2677       H  0.59615212  0.44310584  0.18444802     0.16900
O2678       O  0.61667984  0.48956861  0.12201247    -0.60100
H2679       H  0.63620978  0.04274928  0.28211035     0.16900
O2680       O  0.61385696  0.99370636  0.33883689    -0.60200
H2681       H  0.63737003  0.00438287  0.34068502     0.43900
H2682       H  0.60157030  0.49275885  0.10204661     0.43800
C2683       C  0.64975545  0.18819502  0.27271542    -0.05200
C2684       C  0.67775717  0.21333877  0.29139270    -0.32700
C2685       C  0.70332367  0.20889216  0.30164154     0.36600
C2686       C  0.70117396  0.17992094  0.28938670    -0.05600
C2687       C  0.67798390  0.16097690  0.25553570    -0.32600
C2688       C  0.65511886  0.16850520  0.24198539     0.36500
H2689       H  0.67876867  0.23469933  0.30311256     0.16900
O2690       O  0.72894683  0.23197920  0.32602638    -0.60100
H2691       H  0.67895381  0.14201482  0.23762379     0.16900
O2692       O  0.64388935  0.16281700  0.19469072    -0.60200
H2693       H  0.65298439  0.18359070  0.17850986     0.43900
H2694       H  0.74272606  0.24681822  0.29962787     0.43800
C2695       C  0.97409777  0.17091935  0.34251970    -0.05200
C2696       C  0.99770757  0.19450909  0.31243726    -0.32700
C2697       C  0.51906217  0.19211634  0.30450565     0.36600
C2698       C  0.52649130  0.17071175  0.32513187    -0.05600
C2699       C  0.50537731  0.14755632  0.35840187    -0.32600
C2700       C  0.98002889  0.14970065  0.36784740     0.36500
H2701       H  0.99321655  0.21114363  0.29342430     0.16900
O2702       O  0.54039484  0.21588961  0.27400542    -0.60100
H2703       H  0.51170547  0.13187746  0.37601257     0.16900
O2704       O  0.95700313  0.12652414  0.39754637    -0.60200
H2705       H  0.96634841  0.12939202  0.43099817     0.43900
H2706       H  0.53156922  0.21007626  0.24007169     0.43800
C2707       C  0.57854911  0.21212822  0.38442979    -0.05200
C2708       C  0.58732473  0.24383876  0.38033195    -0.32700
C2709       C  0.57722612  0.25807489  0.41632802     0.36600
C2710       C  0.55224255  0.23943823  0.45067920    -0.05600
C2711       C  0.54510510  0.20786572  0.45535312    -0.32600
C2712       C  0.56018797  0.19555125  0.42606105     0.36500
H2713       H  0.60254219  0.25782474  0.34973668     0.16900
O2714       O  0.59357169  0.28999428  0.41909596    -0.60100
H2715       H  0.03313742  0.19481113  0.48302866     0.16900
O2716       O  0.55434465  0.16591861  0.43574618    -0.60200
H2717       H  0.07700741  0.17004228  0.46189059     0.43900
H2718       H  0.60825324  0.29503689  0.44721796     0.43800
C2719       C  0.69479482  0.23535137  0.43139854    -0.05200
C2720       C  0.67885274  0.20397431  0.41489723    -0.32700
C2721       C  0.64973146  0.19055479  0.39097062     0.36600
C2722       C  0.63828428  0.20956515  0.37305757    -0.05600
C2723       C  0.65372591  0.24106282  0.38895520    -0.32600
C2724       C  0.68012028  0.25313741  0.42089976     0.36500
H2725       H  0.68893163  0.18909003  0.42004612     0.16900
O2726       O  0.63364574  0.15898316  0.38194150    -0.60100
H2727       H  0.64618158  0.25676684  0.37585353     0.16900
O2728       O  0.69102778  0.28211956  0.44124367    -0.60200
H2729       H  0.68059197  0.27811443  0.47447379     0.43900
H2730       H  0.64841471  0.15467085  0.36238970     0.43800
C2731       C  0.52840674  0.12868118  0.25327893    -0.05200
C2732       C  0.50220721  0.10381056  0.27848528    -0.32700
C2733       C  0.97364505  0.09127931  0.26707069     0.36600
C2734       C  0.96905841  0.09692054  0.21725505    -0.05600
C2735       C  0.99632715  0.11862333  0.18971578    -0.32600
C2736       C  0.52361562  0.13517666  0.20440740     0.36500
H2737       H  0.50501760  0.09799477  0.31601479     0.16900
O2738       O  0.94807249  0.07322767  0.29775899    -0.60100
H2739       H  0.99384051  0.12455748  0.15192043     0.16900
O2740       O  0.54626105  0.16179259  0.18043678    -0.60200
H2741       H  0.53759278  0.17617843  0.18031478     0.43900
H2742       H  0.94104107  0.08756080  0.31061004     0.43800
C2743       C  0.58828787  0.12471716  0.25167189    -0.05200
C2744       C  0.59966562  0.10995805  0.28304978    -0.32700
C2745       C  0.61323776  0.09273041  0.26355680     0.36600
C2746       C  0.61193360  0.08647327  0.21208261    -0.05600
C2747       C  0.59444223  0.09570198  0.18284501    -0.32600
C2748       C  0.58350567  0.11534578  0.20125666     0.36500
H2749       H  0.60236587  0.11561935  0.32208816     0.16900
O2750       O  0.63256245  0.08755487  0.29354470    -0.60100
H2751       H  0.59411372  0.09219526  0.14336161     0.16900
O2752       O  0.57577944  0.13085888  0.16734984    -0.60200
H2753       H  0.55789714  0.11447123  0.14815853     0.43900
H2754       H  0.61880324  0.07453315  0.32160658     0.43800
C2755       C  0.61952593  0.67895972  0.28147163     0.02500
C2756       C  0.59099895  0.65164907  0.26391961     0.02500
C2757       C  0.56128908  0.64866492  0.27711080     0.02500
C2758       C  0.56066882  0.66993441  0.31206020     0.02500
C2759       C  0.58777195  0.69139406  0.33893939     0.02500
C2760       C  0.61732112  0.69440412  0.32580013     0.02500
C2761       C  0.63823911  0.57987078  0.17072427     0.02500
C2762       C  0.63866103  0.55116650  0.16855975     0.02500
C2763       C  0.66483668  0.55227487  0.14284286    -0.18000
C2764       C  0.68880489  0.57878133  0.11664087     0.02500
C2765       C  0.68661860  0.60644208  0.11590680     0.02500
C2766       C  0.66132574  0.60595562  0.14274133    -0.18000
H2767       H  0.65967700  0.62691094  0.14180463     0.04500
H2768       H  0.66704204  0.53164894  0.14360972     0.04500
C2769       C  0.94278865  0.58719853  0.18416047     0.02500
C2770       C  0.91320709  0.56113146  0.20034959     0.02500
C2771       C  0.88592420  0.56412928  0.19470537    -0.18000
C2772       C  0.88281085  0.58174355  0.15602314     0.02500
C2773       C  0.91231815  0.60601632  0.13507170     0.02500
C2774       C  0.94101856  0.60826256  0.15052491    -0.18000
H2775       H  0.96261650  0.62871972  0.13780569     0.04500
H2776       H  0.86609004  0.54967719  0.21881438     0.04500
C2777       C  0.61765292  0.93543702  0.30348403     0.02500
C2778       C  0.58949844  0.93539860  0.28627758     0.02500
C2779       C  0.55913279  0.90881944  0.29623030     0.02500
C2780       C  0.55631042  0.88512652  0.32951185     0.02500
C2781       C  0.58340868  0.88662487  0.35141381     0.02500
C2782       C  0.61375017  0.91356438  0.34286288     0.02500
C2783       C  0.83106875  0.88822873  0.32196547     0.02500
C2784       C  0.85658956  0.91490681  0.29776675     0.02500
C2785       C  0.85749883  0.94399834  0.30148366     0.02500
C2786       C  0.83486016  0.94662128  0.33319083     0.02500
C2787       C  0.80997344  0.91996612  0.35881806     0.02500
C2788       C  0.80786481  0.89027693  0.35269917     0.02500
C2789       C  0.91244045  0.85383337  0.19198876     0.02500
C2790       C  0.94104981  0.85521339  0.17499458     0.02500
C2791       C  0.93819469  0.83503725  0.13543432    -0.18000
C2792       C  0.90902812  0.81047897  0.11836997     0.02500
C2793       C  0.88064016  0.80891891  0.13590472     0.02500
C2794       C  0.88339197  0.82929239  0.17483342    -0.18000
H2795       H  0.86217908  0.82747109  0.19067460     0.04500
H2796       H  0.95926006  0.83708548  0.11869512     0.04500
C2797       C  0.73033254  0.50384661  0.97342164     0.02500
C2798       C  0.75208894  0.52519920  0.00855418     0.02500
C2799       C  0.77912077  0.52328048  0.02049733     0.02500
C2800       C  0.78443062  0.50060236  0.99631348     0.02500
C2801       C  0.75891059  0.97893675  0.96574124     0.02500
C2802       C  0.72991300  0.97802743  0.95809244     0.02500
C2803       C  0.71230729  0.72471054  0.99199459     0.02500
C2804       C  0.73856495  0.72596179  0.01682596     0.02500
C2805       C  0.76732514  0.75476974  0.01658183     0.02500
C2806       C  0.77102720  0.77901767  0.98343428     0.02500
C2807       C  0.74619105  0.77569819  0.95246690     0.02500
C2808       C  0.71572305  0.74928880  0.96007232     0.02500
C2809       C  0.49316525  0.77771363  0.99742567     0.02500
C2810       C  0.96048151  0.74571798  0.01462937     0.02500
C2811       C  0.96252262  0.71815225  0.01702779     0.02500
C2812       C  0.49120188  0.72032743  0.99312805     0.02500
C2813       C  0.51269323  0.74503876  0.96096150     0.02500
C2814       C  0.51490756  0.77462412  0.96476159     0.02500
C2815       C  0.67328187  0.61459152  0.68711637     0.02500
C2816       C  0.69440108  0.61326397  0.65096639     0.02500
C2817       C  0.69546147  0.58541974  0.64642336     0.02500
C2818       C  0.67488597  0.55929752  0.67684306     0.02500
C2819       C  0.65228818  0.56000310  0.71078478     0.02500
C2820       C  0.65230344  0.58832682  0.71735616     0.02500
C2821       C  0.59708506  0.68677280  0.87198270     0.02500
C2822       C  0.57540724  0.69183289  0.84500514     0.02500
C2823       C  0.56133861  0.67231800  0.80370600    -0.18000
C2824       C  0.56303567  0.64493342  0.79522801     0.02500
C2825       C  0.58483872  0.63997037  0.82270354     0.02500
C2826       C  0.59870634  0.65951327  0.86396309    -0.18000
H2827       H  0.61450471  0.65588002  0.88717257     0.04500
H2828       H  0.54578321  0.67630241  0.78041084     0.04500
C2829       C  0.58576019  0.88777599  0.85252018     0.02500
C2830       C  0.61463154  0.91711082  0.85348034     0.02500
C2831       C  0.61353331  0.94296008  0.83369342    -0.18000
C2832       C  0.58670491  0.94095367  0.81056025     0.02500
C2833       C  0.55788782  0.91139901  0.80932279     0.02500
C2834       C  0.55962326  0.88551356  0.82703907    -0.18000
H2835       H  0.53917089  0.86242478  0.82269860     0.04500
H2836       H  0.63460269  0.96586509  0.83592355     0.04500
C2837       C  0.88862179  0.55696644  0.66948252     0.02500
C2838       C  0.91521261  0.56030618  0.69644137     0.02500
C2839       C  0.94492361  0.58776320  0.68984449     0.02500
C2840       C  0.94690522  0.61216325  0.65936606     0.02500
C2841       C  0.92058349  0.60954223  0.63270342     0.02500
C2842       C  0.89114153  0.58059751  0.63570613     0.02500
C2843       C  0.94071772  0.82686042  0.67844159     0.02500
C2844       C  0.93652308  0.84988781  0.70353446     0.02500
C2845       C  0.90901182  0.85143520  0.69551107     0.02500
C2846       C  0.88454093  0.82793493  0.66669793     0.02500
C2847       C  0.88771137  0.80386455  0.64309908     0.02500
C2848       C  0.91718809  0.80482963  0.64564959     0.02500
C2849       C  0.81644454  0.91879026  0.85989616     0.02500
C2850       C  0.80677358  0.89029552  0.83416630     0.02500
C2851       C  0.82553097  0.89213081  0.79227375    -0.18000
C2852       C  0.85506648  0.91903765  0.78040385     0.02500
C2853       C  0.86430648  0.94759112  0.80547163     0.02500
C2854       C  0.84619543  0.94541296  0.84831145    -0.18000
H2855       H  0.85334906  0.96610083  0.87060643     0.04500
H2856       H  0.81916213  0.87095458  0.77167688     0.04500
C2857       C  0.52944937  0.77046387  0.46139512     0.02500
C2858       C  0.53619098  0.74664069  0.47709126     0.02500
C2859       C  0.51719323  0.72759108  0.51780827    -0.18000
C2860       C  0.98463636  0.73079266  0.53605464     0.02500
C2861       C  0.97876474  0.75451097  0.51817996     0.02500
C2862       C  0.50293463  0.77091578  0.48248032    -0.18000
H2863       H  0.49839623  0.78908391  0.46993321     0.04500
H2864       H  0.52272315  0.71126594  0.53486823     0.04500
C2865       C  0.75443955  0.77470494  0.46206018     0.02500
C2866       C  0.72833189  0.74388777  0.45462748     0.02500
C2867       C  0.72694749  0.71954363  0.48353637    -0.18000
C2868       C  0.74794861  0.72355463  0.52167879     0.02500
C2869       C  0.77614691  0.75327097  0.52501908     0.02500
C2870       C  0.77819109  0.77823486  0.49599423    -0.18000
H2871       H  0.79914544  0.80111111  0.49965298     0.04500
H2872       H  0.70750947  0.69607949  0.47810670     0.04500
C2873       C  0.75301484  0.98088585  0.46772994     0.02500
C2874       C  0.72302966  0.97965871  0.47355845     0.02500
C2875       C  0.71857555  0.49642391  0.50758649    -0.18000
C2876       C  0.74551304  0.52375862  0.52586076     0.02500
C2877       C  0.77510105  0.52406355  0.52086160     0.02500
C2878       C  0.77612462  0.50099532  0.49069746    -0.18000
H2879       H  0.79874419  0.50209251  0.48594925     0.04500
H2880       H  0.69515992  0.49197016  0.51825804     0.04500
O2881       O  0.96054993  0.52126051  0.01390213    -0.88100
C2882       C  0.52423617  0.54797459  0.09722347     0.87900
Mg2883     Mg  0.92310776  0.97193093  0.00786461     1.58100
O2884       O  0.55202075  0.53768352  0.98242385    -0.87800
O2885       O  0.50122287  0.55219739  0.93824415    -0.75200
C2886       C  0.98722429  0.88587881  0.02672833     0.93000
O2887       O  0.95407790  0.49771288  0.12773506    -0.75000
O2888       O  0.96139930  0.88512668  0.03655872    -0.82500
Mg2889     Mg  0.96855061  0.54376077  0.08490093     1.58000
C2890       C  0.60955361  0.49695658  0.97975050     0.92900
O2891       O  0.98136956  0.58974744  0.04775226    -0.80800
H2892       H  0.56135951  0.54788172  0.90996280    -0.06100
C2893       C  0.52052305  0.97253404  0.10755309     0.87800
O2894       O  0.94597959  0.95785697  0.94559198    -0.75300
O2895       O  0.51302330  0.54935517  0.05700093    -0.88000
O2896       O  0.61001316  0.52200337  0.99241653    -0.80800
C2897       C  0.60853979  0.60481306  0.03626408     0.93000
C2898       C  0.50515568  0.61184724  0.00689706     0.92900
Mg2899     Mg  0.53057352  0.95608836  0.00387555     1.58000
O2900       O  0.51495356  0.91446982  0.05526893    -0.80800
O2901       O  0.55006748  0.99761276  0.94874437    -0.75000
O2902       O  0.58115808  0.59947986  0.04800401    -0.80800
O2903       O  0.91892363  0.53544149  0.08392805    -0.82600
O2904       O  0.90843717  0.89731826  0.01258191    -0.80900
C2905       C  0.55431509  0.53057076  0.93921507     0.87300
O2906       O  0.97859559  0.94834337  0.98648216    -0.88000
O2907       O  0.53423354  0.98373289  0.06725420    -0.88100
O2908       O  0.99845366  0.94752413  0.10117992    -0.75200
Mg2909     Mg  0.54182871  0.57469378  0.99440862     1.58000
O2910       O  0.61440388  0.58273886  0.03263567    -0.82500
H2911       H  0.95015742  0.52933086  0.94580250    -0.06300
O2912       O  0.94645197  0.96262640  0.06636738    -0.87800
H2913       H  0.93804938  0.95273180  0.13903319    -0.06100
H2914       H  0.97275961  0.94165799  0.91309844    -0.06300
C2915       C  0.94517003  0.97004776  0.10983682     0.87300
C2916       C  0.96801427  0.53548554  0.97379756     0.87900
C2917       C  0.96594691  0.94858734  0.94713827     0.87900
H2918       H  0.53317602  0.98149026  0.14177030    -0.06300
O2919       O  0.54697126  0.54230561  0.09936260    -0.75300
Mg2920     Mg  0.95392125  0.92482691  0.05326565     1.58000
H2921       H  0.51458166  0.55172573  0.13131009    -0.06300
C2922       C  0.89582850  0.50837045  0.07587907     0.92900
O2923       O  0.88234017  0.92320210  0.00870605    -0.82500
C2924       C  0.88328960  0.89816297  0.00536782     0.93000
O2925       O  0.53218330  0.61403855  0.00624609    -0.82500
Mg2926     Mg  0.57694791  0.53205072  0.04225456     1.58200
O2927       O  0.89689611  0.98306935  0.06690757    -0.80800
O2928       O  0.57836437  0.96419303  0.01410875    -0.82500
O2929       O  0.80438073  0.68409765  0.26854908    -0.88100
C2930       C  0.84740710  0.71942115  0.40239512     0.87900
Mg2931     Mg  0.76411558  0.63701246  0.26347903     1.58100
O2932       O  0.89129584  0.70709603  0.31109691    -0.87800
O2933       O  0.85022445  0.72020674  0.23759088    -0.75200
C2934       C  0.82211711  0.55515959  0.35605231     0.93000
O2935       O  0.77301069  0.66781074  0.38091084    -0.75000
O2936       O  0.79582592  0.55409100  0.34932703    -0.82500
Mg2937     Mg  0.80031691  0.71059360  0.32907716     1.58000
C2938       C  0.93923588  0.66326859  0.34564183     0.92900
O2939       O  0.82210279  0.75412817  0.27938989    -0.80800
H2940       H  0.91047446  0.71468229  0.24258912    -0.06100
C2941       C  0.84583770  0.63843697  0.41706051     0.87800
O2942       O  0.79619167  0.61939794  0.23068893    -0.75300
O2943       O  0.84372019  0.71804007  0.35694039    -0.88000
O2944       O  0.93704863  0.68705353  0.35607749    -0.80800
C2945       C  0.94005178  0.77250048  0.37816294     0.93000
C2946       C  0.84429282  0.78027260  0.29378710     0.92900
Mg2947     Mg  0.86693355  0.62617034  0.31736202     1.58000
O2948       O  0.84757023  0.58095998  0.36288589    -0.80800
O2949       O  0.89045259  0.66970415  0.26659815    -0.75000
O2950       O  0.91353193  0.77070697  0.37168003    -0.80800
O2951       O  0.75674617  0.70431521  0.30031423    -0.82600
O2952       O  0.74931313  0.56379527  0.28573671    -0.80900
C2953       C  0.89823359  0.69813025  0.27249296     0.87300
O2954       O  0.82139447  0.61667479  0.29460561    -0.88000
O2955       O  0.86288786  0.65122363  0.37998452    -0.88100
O2956       O  0.81669378  0.61753525  0.41319944    -0.75200
Mg2957     Mg  0.88167095  0.74437577  0.30653039     1.58000
O2958       O  0.94174790  0.74820569  0.38631398    -0.82500
H2959       H  0.81272103  0.69060731  0.19511597    -0.06300
O2960       O  0.77312386  0.62991358  0.33950472    -0.87800
H2961       H  0.75116752  0.62283316  0.40575411    -0.06100
H2962       H  0.82839162  0.60481936  0.22634982    -0.06300
C2963       C  0.76493681  0.63921325  0.37638734     0.87300
C2964       C  0.82181450  0.69772479  0.23217534     0.87900
C2965       C  0.81600696  0.61318871  0.24974194     0.87900
H2966       H  0.85580176  0.64557269  0.45364502    -0.06300
O2967       O  0.86697690  0.71290356  0.42178313    -0.75300
Mg2968     Mg  0.78387664  0.59267513  0.34697382     1.58000
H2969       H  0.83362012  0.72604758  0.42600389    -0.06300
C2970       C  0.73184687  0.68146714  0.28399938     0.92900
O2971       O  0.72189423  0.58685424  0.26672883    -0.82500
C2972       C  0.72311524  0.56228666  0.27651567     0.93000
O2973       O  0.87053635  0.78323106  0.30651437    -0.82500
Mg2974     Mg  0.90093787  0.69868177  0.38530904     1.58200
O2975       O  0.72870025  0.65436086  0.27952268    -0.80800
O2976       O  0.91523561  0.63646743  0.33871524    -0.82500
O2977       O  0.63134970  0.85176187  0.64997266    -0.88100
C2978       C  0.70962652  0.89527440  0.73526453     0.87900
Mg2979     Mg  0.59404850  0.80575133  0.66512706     1.58100
O2980       O  0.71617766  0.86740615  0.61715825    -0.87800
O2981       O  0.66107687  0.88011562  0.58820820    -0.75200
C2982       C  0.66396378  0.72498719  0.69916513     0.93000
O2983       O  0.63454779  0.84300256  0.76782223    -0.75000
O2984       O  0.63786831  0.72386238  0.70869681    -0.82500
Mg2985     Mg  0.64524084  0.88245990  0.71198426     1.58000
C2986       C  0.76907766  0.82389912  0.62047830     0.92900
O2987       O  0.65456936  0.92434531  0.66476136    -0.80800
H2988       H  0.71579868  0.86866374  0.54277794    -0.06100
C2989       C  0.70552671  0.81237001  0.73468128     0.87800
O2990       O  0.61272001  0.78668351  0.60344128    -0.75300
O2991       O  0.69234282  0.89109727  0.69945399    -0.88000
O2992       O  0.76699442  0.84790754  0.61270553    -0.80800
C2993       C  0.78527629  0.93711409  0.65321092     0.93000
C2994       C  0.67922997  0.94804441  0.64700476     0.92900
Mg2995     Mg  0.69513698  0.78841788  0.63036619     1.58000
O2996       O  0.68799315  0.74930864  0.68181832    -0.80800
O2997       O  0.70442606  0.82636594  0.57203826    -0.75000
O2998       O  0.75925831  0.93699368  0.65146571    -0.80800
O2999       O  0.59505838  0.87272806  0.71858957    -0.82600
O3000       O  0.58178686  0.73286644  0.68401904    -0.80900
C3001       C  0.71241149  0.85498880  0.57599093     0.87300
O3002       O  0.64838618  0.77977360  0.64064721    -0.88000
O3003       O  0.70879808  0.82047362  0.69061185    -0.88100
O3004       O  0.67847234  0.79255467  0.75246207    -0.75200
Mg3005     Mg  0.70990254  0.90637879  0.62438177     1.58000
O3006       O  0.78679665  0.91243836  0.65209903    -0.82500
H3007       H  0.61325968  0.85169113  0.58366178    -0.06300
O3008       O  0.62286908  0.80264468  0.72092590    -0.87800
H3009       H  0.62148340  0.79988733  0.79525479    -0.06100
H3010       H  0.63683346  0.76798045  0.56959644    -0.06300
C3011       C  0.62588159  0.81430216  0.76260128     0.87300
C3012       C  0.63407732  0.86085285  0.60659989     0.87900
C3013       C  0.63272750  0.77737846  0.60340973     0.87900
H3014       H  0.72591240  0.82270874  0.75864755    -0.06300
O3015       O  0.73047313  0.88702981  0.73373229    -0.75300
Mg3016     Mg  0.63013380  0.76433087  0.71476910     1.58000
H3017       H  0.70663204  0.90570423  0.76877992    -0.06300
C3018       C  0.57019514  0.84594147  0.72103002     0.92900
O3019       O  0.55426432  0.75743763  0.67903114    -0.82500
C3020       C  0.55599901  0.73280052  0.67858986     0.93000
O3021       O  0.70395042  0.94756679  0.63348283    -0.82500
Mg3022     Mg  0.74670449  0.86558006  0.67163031     1.58200
O3023       O  0.57203882  0.82144234  0.72438169    -0.80800
O3024       O  0.74448736  0.79729314  0.62517295    -0.82500
C3025       C  0.97151889  0.82811140  0.68430159    -0.05200
C3026       C  0.99800747  0.85038688  0.65684110    -0.32700
C3027       C  0.53571878  0.86379697  0.68384876     0.36600
C3028       C  0.53883849  0.84261117  0.71463842    -0.05600
C3029       C  0.51141594  0.81558175  0.73226371    -0.32600
C3030       C  0.97570598  0.81127825  0.72249992     0.36500
H3031       H  0.99541161  0.86435011  0.62853956     0.16900
O3032       O  0.56182510  0.89001465  0.66476522    -0.60100
H3033       H  0.51344589  0.79872828  0.75518622     0.16900
O3034       O  0.95029642  0.79021802  0.75106543    -0.60200
H3035       H  0.95244488  0.80074619  0.78335574     0.43900
H3036       H  0.56603323  0.88369079  0.63179558     0.43800
C3037       C  0.85604116  0.82994575  0.65713090    -0.05200
C3038       C  0.85341931  0.84148520  0.61104709    -0.32700
C3039       C  0.82583528  0.84161805  0.59940383     0.36600
C3040       C  0.79957723  0.82723437  0.63211567    -0.05600
C3041       C  0.80241873  0.81625619  0.67866275    -0.32600
C3042       C  0.83094396  0.81850634  0.69197993     0.36500
H3043       H  0.87291516  0.85043824  0.58421113     0.16900
O3044       O  0.82460025  0.85488301  0.55556605    -0.60100
H3045       H  0.78250158  0.80608217  0.70479292     0.16900
O3046       O  0.83340353  0.80743086  0.73738980    -0.60200
H3047       H  0.83716870  0.82416630  0.76129700     0.43900
H3048       H  0.83160086  0.87695704  0.56371282     0.43800
C3049       C  0.90485768  0.87689344  0.71790818    -0.05200
C3050       C  0.90118982  0.87767852  0.76952461    -0.32700
C3051       C  0.88926877  0.89566845  0.79050282     0.36600
C3052       C  0.87850519  0.91126456  0.75947350    -0.05600
C3053       C  0.88428787  0.91235550  0.70810309    -0.32600
C3054       C  0.89956743  0.89715040  0.68785938     0.36500
H3055       H  0.90536054  0.86266435  0.79349528     0.16900
O3056       O  0.88588964  0.89612525  0.84128748    -0.60100
H3057       H  0.87657899  0.92459250  0.68384136     0.16900
O3058       O  0.90713444  0.90040216  0.63811856    -0.60200
H3059       H  0.93023984  0.91569650  0.63611005     0.43900
H3060       H  0.87030827  0.87434474  0.85143214     0.43800
C3061       C  0.80479896  0.75963178  0.55467194    -0.05200
C3062       C  0.80269303  0.75314302  0.60590563    -0.32700
C3063       C  0.83023188  0.76186234  0.63350630     0.36600
C3064       C  0.86071458  0.78086330  0.61167079    -0.05600
C3065       C  0.86287523  0.78532422  0.56016558    -0.32600
C3066       C  0.83536862  0.77449031  0.53179495     0.36500
H3067       H  0.77978245  0.74194240  0.62487911     0.16900
O3068       O  0.82722014  0.75480157  0.68324044    -0.60100
H3069       H  0.88590068  0.79969985  0.54235685     0.16900
O3070       O  0.83873174  0.78010479  0.48169716    -0.60200
H3071       H  0.84815580  0.80306007  0.47834002     0.43900
H3072       H  0.82881067  0.73564297  0.68555030     0.43800
C3073       C  0.92697344  0.78917218  0.60706268    -0.05200
C3074       C  0.95155633  0.80873146  0.57456630    -0.32700
C3075       C  0.96905156  0.79809797  0.54834688     0.36600
C3076       C  0.95848055  0.76550901  0.54548117    -0.05600
C3077       C  0.92974237  0.74504636  0.57116789    -0.32600
C3078       C  0.91498330  0.75669535  0.60382612     0.36500
H3079       H  0.95948798  0.83344496  0.57345307     0.16900
O3080       O  0.51252856  0.81608678  0.55054164    -0.60100
H3081       H  0.91887014  0.72008079  0.56705684     0.16900
O3082       O  0.88976677  0.73635330  0.63333606    -0.60200
H3083       H  0.87125322  0.72668514  0.61098236     0.43900
H3084       H  0.52452063  0.81516278  0.57931530     0.43800
C3085       C  0.81402568  0.96712164  0.65684439    -0.05200
C3086       C  0.81337481  0.98904987  0.68868500    -0.32700
C3087       C  0.83619400  0.52416342  0.71367075     0.36600
C3088       C  0.85829405  0.52716987  0.67637254    -0.05600
C3089       C  0.86613643  0.00575462  0.62663476    -0.32600
C3090       C  0.84079646  0.97509758  0.62655883     0.36500
H3091       H  0.79291451  0.98252499  0.71287976     0.16900
O3092       O  0.84009750  0.54990964  0.73941695    -0.60100
H3093       H  0.88676970  0.01215311  0.60297839     0.16900
O3094       O  0.84171801  0.95361463  0.59530137    -0.60200
H3095       H  0.85334023  0.94524450  0.61370814     0.43900
H3096       H  0.81871352  0.54761749  0.74341545     0.43800
C3097       C  0.97638158  0.64253216  0.65957939    -0.05200
C3098       C  0.98174495  0.66220154  0.70016693    -0.32700
C3099       C  0.50244005  0.69360077  0.70864997     0.36600
C3100       C  0.52739708  0.70279440  0.67395287    -0.05600
C3101       C  0.52656881  0.68184874  0.63815611    -0.32600
C3102       C  0.50064933  0.65153631  0.63654023     0.36500
H3103       H  0.96536983  0.65426426  0.73172349     0.16900
O3104       O  0.50213268  0.71444585  0.74206103    -0.60100
H3105       H  0.54588616  0.68914543  0.61127854     0.16900
O3106       O  0.49854858  0.63165089  0.59912128    -0.60200
H3107       H  0.51847260  0.63086280  0.59988570     0.43900
H3108       H  0.02993086  0.71467614  0.75627948     0.43800
C3109       C  0.88511979  0.98009009  0.78199321    -0.05200
C3110       C  0.87670372  0.00323625  0.79112179    -0.32700
C3111       C  0.89160841  0.52856855  0.77497820     0.36600
C3112       C  0.91066386  0.53468863  0.73213142    -0.05600
C3113       C  0.92100151  0.51354033  0.72029932    -0.32600
C3114       C  0.91143113  0.98889638  0.74881978     0.36500
H3115       H  0.85721538  0.99900800  0.81579575     0.16900
O3116       O  0.88443636  0.55046091  0.79221733    -0.60100
H3117       H  0.93730609  0.51859351  0.68918768     0.16900
O3118       O  0.92654400  0.97199342  0.74590552    -0.60200
H3119       H  0.94070960  0.97855141  0.77496675     0.43900
H3120       H  0.88952121  0.55312735  0.82805626     0.43800
C3121       C  0.80496933  0.54420412  0.54941012    -0.05200
C3122       C  0.83487882  0.55677874  0.52509241    -0.32700
C3123       C  0.86325644  0.56878284  0.55209046     0.36600
C3124       C  0.86297474  0.57353155  0.60380305    -0.05600
C3125       C  0.83342834  0.56457600  0.62668629    -0.32600
C3126       C  0.80468113  0.54616309  0.60168167     0.36500
H3127       H  0.83600538  0.55443012  0.48517462     0.16900
O3128       O  0.89003570  0.57192525  0.52891381    -0.60100
H3129       H  0.83249732  0.56970728  0.66518866     0.16900
O3130       O  0.78204909  0.03527518  0.62554392    -0.60200
H3131       H  0.78191020  0.04965817  0.65118811     0.43900
H3132       H  0.89230793  0.58268403  0.49674181     0.43800
C3133       C  0.95976684  0.69951987  0.55827798    -0.05200
C3134       C  0.94872820  0.69569556  0.60794477    -0.32700
C3135       C  0.93037444  0.66540020  0.62988169     0.36600
C3136       C  0.92564078  0.63834639  0.60403914    -0.05600
C3137       C  0.93606525  0.64245431  0.55416019    -0.32600
C3138       C  0.95127392  0.67201693  0.53089884     0.36500
H3139       H  0.95501759  0.71619271  0.63024802     0.16900
O3140       O  0.91862197  0.66224182  0.67769702    -0.60100
H3141       H  0.93554679  0.62335982  0.53412488     0.16900
O3142       O  0.96081829  0.67411953  0.48211600    -0.60200
H3143       H  0.94399679  0.67479958  0.46276239     0.43900
H3144       H  0.93558474  0.67910277  0.69770668     0.43800
C3145       C  0.96286650  0.87396929  0.73417851    -0.05200
C3146       C  0.96512436  0.86776463  0.78418786    -0.32700
C3147       C  0.99412108  0.88435009  0.80868021     0.36600
C3148       C  0.52494685  0.90439849  0.79312455    -0.05600
C3149       C  0.51952766  0.91783494  0.75087588    -0.32600
C3150       C  0.49018383  0.90273569  0.72653691     0.36500
H3151       H  0.94498069  0.84869603  0.80338147     0.16900
O3152       O  0.99523405  0.87780930  0.85783195    -0.60100
H3153       H  0.53760267  0.93887032  0.73411378     0.16900
O3154       O  0.48692070  0.91485080  0.68272986    -0.60200
H3155       H  0.48228480  0.93143735  0.69271325     0.43900
H3156       H  0.99994656  0.89713559  0.87586197     0.43800
C3157       C  0.97406705  0.59287615  0.71687740    -0.05200
C3158       C  0.50034880  0.59645402  0.70168839    -0.32700
C3159       C  0.53055300  0.61163806  0.72335157     0.36600
C3160       C  0.53337791  0.61897450  0.77416880    -0.05600
C3161       C  0.00557764  0.60852451  0.79200208    -0.32600
C3162       C  0.97606093  0.59616442  0.76895389     0.36500
H3163       H  0.49851093  0.59137287  0.66236912     0.16900
O3164       O  0.55714765  0.62105275  0.69404880    -0.60100
H3165       H  0.00667783  0.61230873  0.83180564     0.16900
O3166       O  0.95029360  0.59165542  0.79686201    -0.60200
H3167       H  0.94758393  0.57659366  0.82343875     0.43900
H3168       H  0.56062781  0.64028521  0.67696586     0.43800
C3169       C  0.66577804  0.69659396  0.70274025    -0.05200
C3170       C  0.64024420  0.66900462  0.68468456    -0.32700
C3171       C  0.64298634  0.64265746  0.67766473     0.36600
C3172       C  0.67111131  0.64331150  0.69112678    -0.05600
C3173       C  0.69658165  0.67076058  0.71017289    -0.32600
C3174       C  0.69415912  0.69754954  0.71557441     0.36500
H3175       H  0.61880540  0.66845613  0.67301507     0.16900
O3176       O  0.61828388  0.61630873  0.65724878    -0.60100
H3177       H  0.71819152  0.67128198  0.72085803     0.16900
O3178       O  0.71927790  0.72432851  0.73409787    -0.60200
H3179       H  0.73444894  0.73395798  0.70568918     0.43900
H3180       H  0.61572430  0.62235139  0.62328281     0.43800
C3181       C  0.67851593  0.53139951  0.67411033    -0.05200
C3182       C  0.66004974  0.01071105  0.62101373    -0.32700
C3183       C  0.66180114  0.98369842  0.61484185     0.36600
C3184       C  0.68003402  0.97759593  0.64763196    -0.05600
C3185       C  0.69629079  0.99826839  0.68629391    -0.32600
C3186       C  0.69863328  0.52809238  0.70713409     0.36500
H3187       H  0.64639781  0.01572162  0.59511881     0.16900
O3188       O  0.64567333  0.96341626  0.57706906    -0.60100
H3189       H  0.71015740  0.99330077  0.71192035     0.16900
O3190       O  0.71405378  0.54983538  0.74347180    -0.60200
H3191       H  0.73535740  0.56453684  0.72904709     0.43900
H3192       H  0.62346782  0.95057198  0.58963749     0.43800
C3193       C  0.62897873  0.53090548  0.73849290    -0.05200
C3194       C  0.62701198  0.52995875  0.79067543    -0.32700
C3195       C  0.60771788  0.99888632  0.81058276     0.36600
C3196       C  0.59326412  0.97026396  0.78455351    -0.05600
C3197       C  0.59472197  0.97150898  0.73240484    -0.32600
C3198       C  0.61011883  0.50293007  0.71263871     0.36500
H3199       H  0.64052889  0.55111672  0.81197468     0.16900
O3200       O  0.60697217  0.99901976  0.86151275    -0.60100
H3201       H  0.58568047  0.95020963  0.71099882     0.16900
O3202       O  0.60514836  0.50322704  0.66274499    -0.60200
H3203       H  0.58210223  0.00136857  0.65634425     0.43900
H3204       H  0.59723966  0.51456994  0.87534394     0.43800
C3205       C  0.63187840  0.59253081  0.75626984    -0.05200
C3206       C  0.64766505  0.61718085  0.78951808    -0.32700
C3207       C  0.63309005  0.63321691  0.80885125     0.36600
C3208       C  0.59983822  0.62116981  0.80372678    -0.05600
C3209       C  0.58270613  0.59269364  0.77769219    -0.32600
C3210       C  0.59858940  0.57908133  0.75251218     0.36500
H3211       H  0.67317468  0.62772206  0.79315104     0.16900
O3212       O  0.65271594  0.66313936  0.82532906    -0.60100
H3213       H  0.55723772  0.58163817  0.77445555     0.16900
O3214       O  0.58165178  0.55363713  0.72263163    -0.60200
H3215       H  0.57536542  0.56148030  0.69367234     0.43900
H3216       H  0.66631199  0.66163296  0.85053851     0.43800
C3217       C  0.71426878  0.58080640  0.60586777    -0.05200
C3218       C  0.74493572  0.58597662  0.61379525    -0.32700
C3219       C  0.75871790  0.57370508  0.58090435     0.36600
C3220       C  0.73925522  0.54938779  0.54748472    -0.05600
C3221       C  0.71082568  0.54905887  0.53487142    -0.32600
C3222       C  0.69899253  0.56518926  0.56243933     0.36500
H3223       H  0.75849519  0.59994478  0.64492817     0.16900
O3224       O  0.79111024  0.58938924  0.57701965    -0.60100
H3225       H  0.70339325  0.04397634  0.49501548     0.16900
O3226       O  0.67027496  0.56201806  0.55027326    -0.60200
H3227       H  0.67939615  0.08877771  0.52922284     0.43900
H3228       H  0.79640364  0.60205476  0.54608333     0.43800
C3229       C  0.71059668  0.63936786  0.61351332    -0.05200
C3230       C  0.69115153  0.64754626  0.58801807    -0.32700
C3231       C  0.70355151  0.67694088  0.56679649     0.36600
C3232       C  0.73666096  0.69566585  0.55628718    -0.05600
C3233       C  0.75652187  0.68527078  0.57572972    -0.32600
C3234       C  0.74391690  0.65883740  0.60784656     0.36500
H3235       H  0.66562159  0.63261475  0.59021501     0.16900
O3236       O  0.68272248  0.68720787  0.55699813    -0.60100
H3237       H  0.78174265  0.69782933  0.56753550     0.16900
O3238       O  0.76408247  0.65353908  0.63573448    -0.60200
H3239       H  0.77964353  0.65315511  0.61192869     0.43900
H3240       H  0.68465405  0.70089006  0.58533252     0.43800
C3241       C  0.50283274  0.64003314  0.00193880    -0.05200
C3242       C  0.98024441  0.63725581  0.98574145    -0.32700
C3243       C  0.97525768  0.66172997  0.97302651     0.36600
C3244       C  0.49409348  0.69183410  0.99643694    -0.05600
C3245       C  0.51654522  0.69210919  0.02871367    -0.32600
C3246       C  0.52102403  0.66641321  0.03159005     0.36500
H3247       H  0.96678825  0.61486613  0.96742241     0.16900
O3248       O  0.95417839  0.65774637  0.93636527    -0.60100
H3249       H  0.53051636  0.71231160  0.05184063     0.16900
O3250       O  0.54172448  0.66648343  0.06563010    -0.60200
H3251       H  0.56233448  0.67494962  0.04756795     0.43900
H3252       H  0.93507472  0.63677003  0.94146494     0.43800
C3253       C  0.49687167  0.80872573  0.00744311    -0.05200
C3254       C  0.97585765  0.81449693  0.96201772    -0.32700
C3255       C  0.97358345  0.84066753  0.97361950     0.36600
C3256       C  0.49386444  0.86177441  0.03346252    -0.05600
C3257       C  0.50825559  0.85059807  0.06545751    -0.32600
C3258       C  0.50855779  0.82329121  0.05358853     0.36500
H3259       H  0.96648414  0.80241590  0.92729070     0.16900
O3260       O  0.95859167  0.85038368  0.94167450    -0.60100
H3261       H  0.51739184  0.86187260  0.10081020     0.16900
O3262       O  0.51923096  0.81024636  0.08765820    -0.60200
H3263       H  0.54262583  0.82414362  0.08811131     0.43900
H3264       H  0.93570415  0.83798674  0.95106514     0.43800
C3265       C  0.57810026  0.85931878  0.88212624    -0.05200
C3266       C  0.56349143  0.83026975  0.85778822    -0.32700
C3267       C  0.54236670  0.80251798  0.88327598     0.36600
C3268       C  0.53972144  0.80254509  0.93563346    -0.05600
C3269       C  0.55871281  0.83091326  0.96039636    -0.32600
C3270       C  0.57409441  0.85930364  0.93412300     0.36500
H3271       H  0.56445491  0.82974223  0.81775556     0.16900
O3272       O  0.52168811  0.77680686  0.85634630    -0.60100
H3273       H  0.55848665  0.83157247  0.00047745     0.16900
O3274       O  0.58174002  0.88669019  0.95844588    -0.60200
H3275       H  0.59293056  0.88706713  0.98913916     0.43900
H3276       H  0.03231073  0.76896838  0.82939763     0.43800
C3277       C  0.53160566  0.73829125  0.92319648    -0.05200
C3278       C  0.51486120  0.71567203  0.88730564    -0.32700
C3279       C  0.52835984  0.70023633  0.86253636     0.36600
C3280       C  0.56142673  0.71106445  0.86598044    -0.05600
C3281       C  0.57945932  0.73830206  0.89474939    -0.32600
C3282       C  0.56464223  0.75071068  0.92531672     0.36500
H3283       H  0.98673946  0.70250669  0.88010239     0.16900
O3284       O  0.50805552  0.67324575  0.83812413    -0.60100
H3285       H  0.60497963  0.74962807  0.89549174     0.16900
O3286       O  0.58237110  0.77376637  0.95868882    -0.60200
H3287       H  0.59467728  0.79306919  0.93845820     0.43900
H3288       H  0.99729141  0.65333549  0.86255596     0.43800
C3289       C  0.63256559  0.63643675  0.02299804    -0.05200
C3290       C  0.64009084  0.66060942  0.05661854    -0.32700
C3291       C  0.66509922  0.69059235  0.04580994     0.36600
C3292       C  0.68095458  0.69650410  0.99954919    -0.05600
C3293       C  0.66968738  0.67346107  0.96300353    -0.32600
C3294       C  0.64637467  0.64301321  0.97509332     0.36500
H3295       H  0.62736332  0.65571897  0.09167341     0.16900
O3296       O  0.67420519  0.71387842  0.08037585    -0.60100
H3297       H  0.68164616  0.67848379  0.92722173     0.16900
O3298       O  0.63843001  0.61968297  0.94089691    -0.60200
H3299       H  0.61705019  0.61417573  0.92911828     0.43900
H3300       H  0.68951816  0.71201592  0.10181321     0.43800
C3301       C  0.85436713  0.86868684  0.99523905    -0.05200
C3302       C  0.85680030  0.84374198  0.97507629    -0.32700
C3303       C  0.82981330  0.81431286  0.97025564     0.36600
C3304       C  0.80009135  0.81002691  0.98481171    -0.05600
C3305       C  0.79755801  0.83511545  0.00363606    -0.32600
C3306       C  0.82456914  0.86406733  0.01038316     0.36500
H3307       H  0.87974289  0.84681473  0.96429295     0.16900
O3308       O  0.83265215  0.78960717  0.95343218    -0.60100
H3309       H  0.77467563  0.83158993  0.01596080     0.16900
O3310       O  0.82186303  0.88690920  0.03511047    -0.60200
H3311       H  0.82393862  0.88344790  0.07080305     0.43900
H3312       H  0.84144170  0.79523651  0.91905688     0.43800
C3313       C  0.75416011  0.80036044  0.91261488    -0.05200
C3314       C  0.74176555  0.82068397  0.91276434    -0.32700
C3315       C  0.75604378  0.84838611  0.88322485     0.36600
C3316       C  0.78508107  0.85789600  0.85695039    -0.05600
C3317       C  0.79510353  0.83564181  0.85388932    -0.32600
C3318       C  0.77902842  0.80686343  0.87870630     0.36500
H3319       H  0.72160268  0.81557922  0.93666479     0.16900
O3320       O  0.74110402  0.86545787  0.88015139    -0.60100
H3321       H  0.81644944  0.84063161  0.83357182     0.16900
O3322       O  0.78977613  0.78619254  0.87309546    -0.60200
H3323       H  0.78106352  0.77556346  0.84106535     0.43900
H3324       H  0.72871738  0.85841528  0.84914400     0.43800
C3325       C  0.68709871  0.74556418  0.93432625    -0.05200
C3326       C  0.65976637  0.73824068  0.96320994    -0.32700
C3327       C  0.62940619  0.72014456  0.94328383     0.36600
C3328       C  0.62644050  0.71291034  0.89251579    -0.05600
C3329       C  0.65384015  0.72568249  0.86192433    -0.32600
C3330       C  0.68408479  0.74100503  0.88259860     0.36500
H3331       H  0.66180550  0.74240222  0.00288292     0.16900
O3332       O  0.60312843  0.70701829  0.97418952    -0.60100
H3333       H  0.65172650  0.72018133  0.82261836     0.16900
O3334       O  0.70985257  0.74719050  0.85310218    -0.60200
H3335       H  0.71313224  0.76451052  0.83072397     0.43900
H3336       H  0.60107359  0.72473435  0.98694939     0.43800
C3337       C  0.81281902  0.49908999  0.00988605    -0.05200
C3338       C  0.80825973  0.97988666  0.05049088    -0.32700
C3339       C  0.83604055  0.98161929  0.06685980     0.36600
C3340       C  0.86703872  0.50479773  0.05387325    -0.05600
C3341       C  0.86998541  0.52568783  0.01616529    -0.32600
C3342       C  0.84303470  0.52244627  0.99327868     0.36500
H3343       H  0.78570447  0.96310465  0.06757341     0.16900
O3344       O  0.83432810  0.96116218  0.10259975    -0.60100
H3345       H  0.89324347  0.54423349  0.00395716     0.16900
O3346       O  0.84634597  0.54220122  0.95503067    -0.60200
H3347       H  0.84299095  0.55859157  0.97026863     0.43900
H3348       H  0.82863313  0.94152112  0.08461676     0.51300
C3349       C  0.69852943  0.50052847  0.97005299    -0.05200
C3350       C  0.67106515  0.97545501  0.02727415    -0.32700
C3351       C  0.64177482  0.97325753  0.03448417     0.36600
C3352       C  0.63949640  0.49714137  0.97365874    -0.05600
C3353       C  0.66254687  0.51651808  0.93840618    -0.32600
C3354       C  0.69141573  0.51682452  0.93453157     0.36500
H3355       H  0.67915686  0.96471823  0.05394842     0.16900
O3356       O  0.62291081  0.95645712  0.07422418    -0.60100
H3357       H  0.65812733  0.53106321  0.91367010     0.16900
O3358       O  0.71295207  0.53392929  0.89751131    -0.60200
H3359       H  0.70264686  0.52378557  0.86597105     0.43900
H3360       H  0.60911601  0.93498826  0.06146227     0.43800
C3361       C  0.70511579  0.95481868  0.92406586    -0.05200
C3362       C  0.70314944  0.96380998  0.87558606    -0.32700
C3363       C  0.67511879  0.94732592  0.84862269     0.36600
C3364       C  0.64684993  0.92356728  0.87208670    -0.05600
C3365       C  0.65085141  0.91134727  0.91699496    -0.32600
C3366       C  0.67955577  0.92680440  0.94297394     0.36500
H3367       H  0.72230045  0.98530013  0.85997143     0.16900
O3368       O  0.67494579  0.95664230  0.80067216    -0.60100
H3369       H  0.63206844  0.89085790  0.93407802     0.16900
O3370       O  0.68110664  0.91625332  0.98934296    -0.60200
H3371       H  0.69283011  0.90486336  0.98433064     0.43900
H3372       H  0.67547367  0.94049641  0.77940035     0.43800
C3373       C  0.76744013  0.95835281  0.93644967    -0.05200
C3374       C  0.77098185  0.93503381  0.96034391    -0.32700
C3375       C  0.78556106  0.92031060  0.93565179     0.36600
C3376       C  0.79397420  0.92659761  0.88511075    -0.05600
C3377       C  0.78731984  0.94749802  0.86006736    -0.32600
C3378       C  0.77543720  0.96424178  0.88558829     0.36500
H3379       H  0.76421452  0.92957706  0.99908980     0.16900
O3380       O  0.79343033  0.90153695  0.96171037    -0.60100
H3381       H  0.79458606  0.95332902  0.82140403     0.16900
O3382       O  0.77535647  0.98885165  0.86224602    -0.60200
H3383       H  0.76521044  0.98095654  0.82966871     0.43900
H3384       H  0.77299315  0.88354227  0.97355286     0.43800
C3385       C  0.93521690  0.74981626  0.04213046    -0.05200
C3386       C  0.93597991  0.75242422  0.09408613    -0.32700
C3387       C  0.92290524  0.76825386  0.11917605     0.36600
C3388       C  0.91093490  0.78447288  0.09248559    -0.05600
C3389       C  0.90688081  0.77929077  0.04100722    -0.32600
C3390       C  0.91714099  0.76047072  0.01650044     0.36500
H3391       H  0.94950651  0.74524546  0.11549877     0.16900
O3392       O  0.92530820  0.77078128  0.16989582    -0.60100
H3393       H  0.89708393  0.79083093  0.01953915     0.16900
O3394       O  0.91298682  0.75598382  0.96625202    -0.60200
H3395       H  0.89156669  0.73727949  0.96274116     0.43900
H3396       H  0.90363549  0.75624684  0.18295081     0.43800
C3397       C  0.84885931  0.79106682  0.11068908    -0.05200
C3398       C  0.83798696  0.76167206  0.08797904    -0.32700
C3399       C  0.81098970  0.74846354  0.05760366     0.36600
C3400       C  0.79192111  0.76235827  0.05521657    -0.05600
C3401       C  0.79953640  0.78812623  0.08529207    -0.32600
C3402       C  0.82905422  0.80444494  0.10751960     0.36500
H3403       H  0.85076814  0.74928294  0.09182946     0.16900
O3404       O  0.80402487  0.72257099  0.02986742    -0.60100
H3405       H  0.78459280  0.79853227  0.08522664     0.16900
O3406       O  0.83990499  0.83516098  0.11963944    -0.60200
H3407       H  0.82488773  0.83485858  0.14527315     0.43900
H3408       H  0.81226119  0.73061266  0.99592276     0.43800
C3409       C  0.83691334  0.97773755  0.34046969    -0.05200
C3410       C  0.84915275  0.49526133  0.36184549    -0.32700
C3411       C  0.84708311  0.52194780  0.37265123     0.36600
C3412       C  0.82379966  0.52635942  0.34969250    -0.05600
C3413       C  0.80416970  0.50469039  0.31418324    -0.32600
C3414       C  0.81624853  0.98520342  0.31569785     0.36500
H3415       H  0.86597632  0.49121838  0.38158564     0.16900
O3416       O  0.86712613  0.54293366  0.40685563    -0.60100
H3417       H  0.78677136  0.50813794  0.29497350     0.16900
O3418       O  0.79645551  0.96614958  0.27946816    -0.60200
H3419       H  0.79982828  0.97981772  0.25035637     0.43900
H3420       H  0.88727723  0.55646090  0.38829322     0.43800
C3421       C  0.82990557  0.85779997  0.31628852    -0.05200
C3422       C  0.84192201  0.84771561  0.35431684    -0.32700
C3423       C  0.84706972  0.82279915  0.34650214     0.36600
C3424       C  0.83843797  0.80637032  0.30127800    -0.05600
C3425       C  0.82296418  0.81412796  0.26547074    -0.32600
C3426       C  0.82006209  0.84073620  0.27164072     0.36500
H3427       H  0.84927884  0.86055995  0.38887580     0.16900
O3428       O  0.86088321  0.81485435  0.38328248    -0.60100
H3429       H  0.81462509  0.80055223  0.23173056     0.16900
O3430       O  0.80904886  0.85090260  0.23346587    -0.60200
H3431       H  0.78788554  0.83301895  0.22494719     0.43900
H3432       H  0.84502928  0.79291492  0.39217838     0.43800
C3433       C  0.75950171  0.95654629  0.44372715    -0.05200
C3434       C  0.75028148  0.94528267  0.39501421    -0.32700
C3435       C  0.76200178  0.92754632  0.37070382     0.36600
C3436       C  0.78696112  0.92471086  0.39145778    -0.05600
C3437       C  0.79493073  0.93444238  0.44075822    -0.32600
C3438       C  0.78007018  0.94819856  0.46764509     0.36500
H3439       H  0.73485719  0.95102493  0.37487238     0.16900
O3440       O  0.75097895  0.91556303  0.32455794    -0.60100
H3441       H  0.81408097  0.93300682  0.45798531     0.16900
O3442       O  0.78671445  0.95456664  0.51723867    -0.60200
H3443       H  0.81002042  0.96896503  0.51907457     0.43900
H3444       H  0.73381060  0.89371689  0.33076580     0.43800
C3445       C  0.75993949  0.80368762  0.43440775    -0.05200
C3446       C  0.75552303  0.80407170  0.38293721    -0.32700
C3447       C  0.76521401  0.83243528  0.35747277     0.36600
C3448       C  0.78416909  0.86141266  0.38149340    -0.05600
C3449       C  0.78596760  0.86082512  0.43334899    -0.32600
C3450       C  0.77195653  0.83238147  0.45957967     0.36500
H3451       H  0.74503799  0.78260806  0.36223225     0.16900
O3452       O  0.75849667  0.83166511  0.30809111    -0.60100
H3453       H  0.79955037  0.88217876  0.45378915     0.16900
O3454       O  0.77034953  0.83279078  0.51019002    -0.60200
H3455       H  0.75148122  0.83482856  0.51760051     0.43900
H3456       H  0.73882097  0.83292005  0.30728806     0.43800
C3457       C  0.88155353  0.91076748  0.26915561    -0.05200
C3458       C  0.89929812  0.89993231  0.29495670    -0.32700
C3459       C  0.91169879  0.88285783  0.27062857     0.36600
C3460       C  0.90958367  0.87918866  0.21864602    -0.05600
C3461       C  0.89629919  0.89429544  0.19224195    -0.32600
C3462       C  0.88174238  0.90912614  0.21676694     0.36500
H3463       H  0.89993631  0.90112952  0.33515908     0.16900
O3464       O  0.92262640  0.86709170  0.29833217    -0.60100
H3465       H  0.89405606  0.89157860  0.15224704     0.16900
O3466       O  0.86439972  0.91824939  0.18929986    -0.60200
H3467       H  0.88030104  0.93707459  0.17055891     0.43900
H3468       H  0.94196418  0.88347408  0.31486315     0.43800
C3469       C  0.65103682  0.96009736  0.28397833    -0.05200
C3470       C  0.67934593  0.96616530  0.30670957    -0.32700
C3471       C  0.66839739  0.52933033  0.31064248     0.36600
C3472       C  0.69366677  0.53165604  0.28150956    -0.05600
C3473       C  0.69241635  0.50406954  0.26480597    -0.32600
C3474       C  0.65622458  0.98066875  0.24412535     0.36500
H3475       H  0.68162444  0.94809728  0.32472202     0.16900
O3476       O  0.66940916  0.55554116  0.32968649    -0.60100
H3477       H  0.71216944  0.50541938  0.24358622     0.16900
O3478       O  0.64019153  0.96985650  0.20059999    -0.60200
H3479       H  0.67436959  0.44168772  0.28291661     0.43900
H3480       H  0.74279785  0.99513713  0.31643441     0.43800
C3481       C  0.52428244  0.85874388  0.34452413    -0.05200
C3482       C  0.51108012  0.83069657  0.31789281    -0.32700
C3483       C  0.98847141  0.80252336  0.32688657     0.36600
C3484       C  0.96917781  0.80190757  0.36676679    -0.05600
C3485       C  0.97645410  0.82970994  0.39124191    -0.32600
C3486       C  0.50971933  0.85965516  0.38979529     0.36500
H3487       H  0.52243477  0.82889303  0.28426031     0.16900
O3488       O  0.98131547  0.77576129  0.30137375    -0.60100
H3489       H  0.96117552  0.82951845  0.42112904     0.16900
O3490       O  0.52199196  0.88686755  0.41642717    -0.60200
H3491       H  0.02401441  0.88486900  0.43184152     0.43900
H3492       H  0.96582589  0.77361758  0.27596504     0.43800
C3493       C  0.57884694  0.85827391  0.38023675    -0.05200
C3494       C  0.56793918  0.82974566  0.35469240    -0.32700
C3495       C  0.55225569  0.80066827  0.37995329     0.36600
C3496       C  0.55120679  0.79971118  0.43228730    -0.05600
C3497       C  0.56586432  0.82846203  0.45788611    -0.32600
C3498       C  0.57856741  0.85734840  0.43260943     0.36500
H3499       H  0.56834439  0.82984916  0.31443158     0.16900
O3500       O  0.04314602  0.77986124  0.35734587    -0.60100
H3501       H  0.56499276  0.82837482  0.49814679     0.16900
O3502       O  0.58800127  0.88411719  0.45948112    -0.60200
H3503       H  0.60682837  0.88744437  0.47827760     0.43900
H3504       H  0.06135393  0.78037054  0.33942705     0.43800
C3505       C  0.69269035  0.95912891  0.44460369    -0.05200
C3506       C  0.68182699  0.92764775  0.43144131    -0.32700
C3507       C  0.65538867  0.91103803  0.39959445     0.36600
C3508       C  0.63737865  0.92481885  0.38459666    -0.05600
C3509       C  0.64508728  0.95367316  0.40495318    -0.32600
C3510       C  0.67343387  0.97172724  0.42972149     0.36500
H3511       H  0.69447667  0.91624340  0.44383063     0.16900
O3512       O  0.64916908  0.88289844  0.38019826    -0.60100
H3513       H  0.63110215  0.96425036  0.39570873     0.16900
O3514       O  0.68667979  0.50450016  0.43227649    -0.60200
H3515       H  0.70057531  0.51358196  0.40236334     0.43900
H3516       H  0.64252415  0.86828128  0.40894682     0.43800
C3517       C  0.53168584  0.90081264  0.26276437    -0.05200
C3518       C  0.02247040  0.87559103  0.22661856    -0.32700
C3519       C  0.99353994  0.85996416  0.20238040     0.36600
C3520       C  0.97286461  0.87257097  0.20103816    -0.05600
C3521       C  0.48444293  0.90182384  0.23523849    -0.32600
C3522       C  0.51231011  0.91447428  0.26432742     0.36500
H3523       H  0.03828725  0.86622210  0.22431501     0.16900
O3524       O  0.98503549  0.83098950  0.18396461    -0.60100
H3525       H  0.47137153  0.91405663  0.23439894     0.16900
O3526       O  0.51988046  0.93947038  0.29472864    -0.60200
H3527       H  0.52665691  0.95759448  0.27209805     0.43900
H3528       H  0.97552500  0.81650688  0.21267332     0.43800
C3529       C  0.91711340  0.63433496  0.10682515    -0.05200
C3530       C  0.93602527  0.66369468  0.12918846    -0.32700
C3531       C  0.95064449  0.69144304  0.10092995     0.36600
C3532       C  0.94185529  0.69118631  0.05118697    -0.05600
C3533       C  0.91998512  0.66223658  0.03029365    -0.32600
C3534       C  0.91055879  0.63386343  0.05582317     0.36500
H3535       H  0.94316996  0.66463638  0.16742509     0.16900
O3536       O  0.97697603  0.71736653  0.11932760    -0.60100
H3537       H  0.91373290  0.66153059  0.99172060     0.16900
O3538       O  0.89743408  0.60615196  0.03020111    -0.60200
H3539       H  0.88145971  0.60611574  0.00774681     0.43900
H3540       H  0.97181295  0.71990542  0.15424523     0.43800
C3541       C  0.84967274  0.57009541  0.13369498    -0.05200
C3542       C  0.84404896  0.58827023  0.09928474    -0.32700
C3543       C  0.82065354  0.57417372  0.06238448     0.36600
C3544       C  0.79999636  0.54163619  0.06300750    -0.05600
C3545       C  0.79952605  0.52527867  0.10522520    -0.32600
C3546       C  0.82394288  0.53855192  0.13989132     0.36500
H3547       H  0.85807995  0.61335989  0.09967632     0.16900
O3548       O  0.81931453  0.59210813  0.02481536    -0.60100
H3549       H  0.78061976  0.00790705  0.12199234     0.16900
O3550       O  0.82104744  0.52047070  0.18031699    -0.60200
H3551       H  0.82273968  0.04871577  0.21044062     0.43900
H3552       H  0.80971756  0.60369590  0.04020990     0.43800
C3553       C  0.87540639  0.96923687  0.26363331    -0.05200
C3554       C  0.90829995  0.99080000  0.26404357    -0.32700
C3555       C  0.92191032  0.51799278  0.24491686     0.36600
C3556       C  0.90556359  0.52771861  0.21278701    -0.05600
C3557       C  0.87639082  0.50341531  0.19492683    -0.32600
C3558       C  0.85745583  0.97293442  0.22761254     0.36500
H3559       H  0.92341971  0.98675127  0.28826136     0.16900
O3560       O  0.95414514  0.53477268  0.24949445    -0.60100
H3561       H  0.86506691  0.50800975  0.16470729     0.16900
O3562       O  0.82674624  0.94959864  0.21952704    -0.60200
H3563       H  0.82807505  0.43474088  0.19352626     0.43900
H3564       H  0.95848453  0.03522677  0.18998515     0.43800
C3565       C  0.73460666  0.69662914  0.04187422    -0.05200
C3566       C  0.73733613  0.69432414  0.09353486    -0.32700
C3567       C  0.72669710  0.66489789  0.11647861     0.36600
C3568       C  0.70913694  0.63680172  0.08942547    -0.05600
C3569       C  0.70721489  0.63966756  0.03787700    -0.32600
C3570       C  0.72343386  0.66894159  0.01403900     0.36500
H3571       H  0.74682856  0.71504915  0.11638503     0.16900
O3572       O  0.73176303  0.66375237  0.16609758    -0.60100
H3573       H  0.69151581  0.61960377  0.01591113     0.16900
O3574       O  0.72551945  0.67019700  0.96313338    -0.60200
H3575       H  0.74681154  0.67329586  0.95496679     0.43900
H3576       H  0.75236166  0.66427483  0.16778832     0.43800
C3577       C  0.74373239  0.54597637  0.03794584    -0.05200
C3578       C  0.73877368  0.54191756  0.08948650    -0.32700
C3579       C  0.72653580  0.55783222  0.11634442     0.36600
C3580       C  0.71429686  0.57454181  0.09140035    -0.05600
C3581       C  0.72126342  0.58008267  0.04020905    -0.32600
C3582       C  0.73795056  0.56796538  0.01461435     0.36500
H3583       H  0.74339778  0.52561856  0.10908035     0.16900
O3584       O  0.72415097  0.55470002  0.16695736    -0.60100
H3585       H  0.71229487  0.59176170  0.01842108     0.16900
O3586       O  0.74682947  0.57638913  0.96598647    -0.60200
H3587       H  0.76936175  0.59338538  0.96699115     0.43900
H3588       H  0.74490021  0.57160768  0.17892115     0.43800
C3589       C  0.59154187  0.96458135  0.26371038    -0.05200
C3590       C  0.58281358  0.96537637  0.21411636    -0.32700
C3591       C  0.59430944  0.99417509  0.18855387     0.36600
C3592       C  0.61433635  0.51966535  0.19213223    -0.05600
C3593       C  0.59960781  0.51718497  0.23876105    -0.32600
C3594       C  0.58497256  0.48901592  0.26642517     0.36500
H3595       H  0.57067827  0.94391663  0.19310737     0.16900
O3596       O  0.58931040  0.99393538  0.13854646    -0.60100
H3597       H  0.60055933  0.53698076  0.25611302     0.16900
O3598       O  0.57301226  0.48843768  0.31331440    -0.60200
H3599       H  0.55824806  0.49653995  0.30991023     0.43900
H3600       H  0.60468149  0.98891585  0.12247340     0.43800
C3601       C  0.65195102  0.69014247  0.25735167    -0.05200
C3602       C  0.67947403  0.71711931  0.27321207    -0.32700
C3603       C  0.70701164  0.71550587  0.28034059     0.36600
C3604       C  0.70659578  0.68737377  0.26855892    -0.05600
C3605       C  0.68307608  0.66658206  0.23664989    -0.32600
C3606       C  0.65792418  0.67114593  0.22588223     0.36500
H3607       H  0.67858193  0.73729092  0.28653547     0.16900
O3608       O  0.73251720  0.73996646  0.30270713    -0.60100
H3609       H  0.68475103  0.64786492  0.21913035     0.16900
O3610       O  0.64396247  0.66254398  0.18058775    -0.60200
H3611       H  0.64676575  0.68196740  0.16510525     0.43900
H3612       H  0.74538553  0.75423700  0.27513496     0.43800
C3613       C  0.97076802  0.66734340  0.34144704    -0.05200
C3614       C  0.99399371  0.69220158  0.31268895    -0.32700
C3615       C  0.52517727  0.69205185  0.30519673     0.36600
C3616       C  0.53076292  0.66880015  0.32348467    -0.05600
C3617       C  0.50963957  0.64638227  0.35745031    -0.32600
C3618       C  0.97814418  0.64717681  0.36664690     0.36500
H3619       H  0.98843704  0.70818684  0.29398637     0.16900
O3620       O  0.54663782  0.71489567  0.27353281    -0.60100
H3621       H  0.51482350  0.62949656  0.37362569     0.16900
O3622       O  0.95562476  0.62280769  0.39506297    -0.60200
H3623       H  0.96188228  0.62877878  0.43001242     0.43900
H3624       H  0.53696529  0.70907830  0.24022856     0.43800
C3625       C  0.58345398  0.70902552  0.38167633    -0.05200
C3626       C  0.59104354  0.74030559  0.37649698    -0.32700
C3627       C  0.58120853  0.75466112  0.41255316     0.36600
C3628       C  0.55726818  0.73628698  0.44861888    -0.05600
C3629       C  0.55146282  0.70519210  0.45460137    -0.32600
C3630       C  0.56616718  0.69280709  0.42434254     0.36500
H3631       H  0.60522478  0.75395399  0.34483019     0.16900
O3632       O  0.59725194  0.78659450  0.41392949    -0.60100
H3633       H  0.02886631  0.69319589  0.48457983     0.16900
O3634       O  0.56064633  0.66327040  0.43393502    -0.60200
H3635       H  0.07482784  0.67001030  0.46094254     0.43900
H3636       H  0.61376078  0.79234681  0.43940755     0.43800
C3637       C  0.70089977  0.73408354  0.41965008    -0.05200
C3638       C  0.68765157  0.70417588  0.39809055    -0.32700
C3639       C  0.65820984  0.68996608  0.37526038     0.36600
C3640       C  0.64401362  0.70762804  0.36280429    -0.05600
C3641       C  0.65795807  0.73838599  0.38147794    -0.32600
C3642       C  0.68446947  0.75055337  0.41286206     0.36500
H3643       H  0.69955341  0.69073895  0.40026621     0.16900
O3644       O  0.64375242  0.65879095  0.36403379    -0.60100
H3645       H  0.64888955  0.75340070  0.37166265     0.16900
O3646       O  0.69353012  0.77817531  0.43683027    -0.60200
H3647       H  0.68174111  0.77212642  0.46908083     0.43900
H3648       H  0.65915339  0.65611557  0.34303494     0.43800
C3649       C  0.53105575  0.62608801  0.25103230    -0.05200
C3650       C  0.50513593  0.60144627  0.27696935    -0.32700
C3651       C  0.97721351  0.59604001  0.26098906     0.36600
C3652       C  0.97462964  0.59897111  0.20911597    -0.05600
C3653       C  0.00303118  0.62013229  0.18321705    -0.32600
C3654       C  0.52569943  0.63312485  0.20292585     0.36500
H3655       H  0.50841154  0.59554717  0.31419312     0.16900
O3656       O  0.95031451  0.58248589  0.29097129    -0.60100
H3657       H  0.00314229  0.62377569  0.14362381     0.16900
O3658       O  0.54819904  0.65987944  0.17904859    -0.60200
H3659       H  0.53945199  0.67414840  0.17920802     0.43900
H3660       H  0.95381551  0.57097252  0.31794089     0.43800
C3661       C  0.59214575  0.62352339  0.24321069    -0.05200
C3662       C  0.60652379  0.61063054  0.27229178    -0.32700
C3663       C  0.62038147  0.59432232  0.25043244     0.36600
C3664       C  0.61525773  0.58572657  0.19993163    -0.05600
C3665       C  0.59573830  0.59353732  0.17332797    -0.32600
C3666       C  0.58504199  0.61299352  0.19341669     0.36500
H3667       H  0.61055625  0.61656616  0.31099611     0.16900
O3668       O  0.64227555  0.59064651  0.27665234    -0.60100
H3669       H  0.59345706  0.58905498  0.13404901     0.16900
O3670       O  0.57487015  0.62707224  0.16080370    -0.60200
H3671       H  0.55615673  0.60987420  0.14417226     0.43900
H3672       H  0.63148672  0.58000246  0.30826949     0.43800
loop_ 
_geom_bond_atom_site_label_1 
_geom_bond_atom_site_label_2 
_geom_bond_distance 
_geom_bond_site_symmetry_2 
_ccdc_geom_bond_type 
C1            C2   1.452       .  A
C1            C6   1.446       .  A
C1          C847   1.520       .  S
C2            C3   1.421       .  A
C2          C907   1.527       .  S
C3            C4   1.422       .  A
C3          C895   1.515       .  S
C4            C5   1.421       .  A
C4          C862   1.467       .  S
C5            C6   1.415       .  A
C5          C871   1.506       .  S
C6          C886   1.529       .  S
C7            C8   1.431       .  A
C7           C12   1.421       .  A
C7          C910   1.502       .  S
C8            C9   1.412       .  A
C8          C838   1.524       .  S
C9           C10   1.408       .  A
C9           H14   1.082       .  S
C10          C11   1.421       .  A
C10         C826   1.497       .  S
C11          C12   1.411       .  A
C11         C814   1.511       .  S
C12          H13   1.080       .  S
C15          C16   1.444       .  A
C15          C20   1.418       .  A
C15         C898   1.519       .  S
C16          C17   1.425       .  A
C16         C802   1.544       .  S
C17          C18   1.412       .  A
C17          H22   1.076       .  S
C18          C19   1.420       .  A
C18         C787   1.533       .  S
C19          C20   1.413       .  A
C19         C775   1.507       .  S
C20          H21   1.082       .  S
C23          C24   1.451       .  A
C23          C28   1.457       .  A
C23         C715   1.547       .  S
C24          C25   1.418       .  A
C24         C835   1.517       .  S
C25          C26   1.417       .  A
C25         C763   1.500       .  S
C26          C27   1.420       .  A
C26         C727   1.487       .  S
C27          C28   1.421       .  A
C27         C739   1.512       .  S
C28         C754   1.510       .  S
C29          C30   1.425       .  A
C29          C34   1.428       .  A
C29         C667   1.477       .  S
C30          C31   1.420       .  A
C30         C703   1.526       .  S
C31          C32   1.439       .  A
C31         C799   1.496       .  S
C32          C33   1.432       .  A
C32         C655   1.498       .  S
C33          C34   1.423       .  A
C33         C682   1.518       .  S
C34         C694   1.508       .  S
C35          C36   1.424       .  A
C35          C40   1.405       .  A
C35         C706   1.512       .  S
C36          C37   1.413       .  A
C36         C766   1.510       .  S
C37          C38   1.403       .  A
C37          H42   1.077       .  S
C38          C39   1.418       .  A
C38         C634   1.503       .  S
C39          C40   1.414       .  A
C39         C643   1.508       .  S
C40          H41   1.075       .  S
C43          C44   1.428   1_566  A
C43         C966   1.420       .  A
C43         C595   1.465       .  S
C44          C45   1.404       .  A
C44         C823   1.502       .  S
C45          C46   1.416   1_544  A
C45         C790   1.503       .  S
C46         C965   1.417       .  A
C46         C583   1.456       .  S
C47          C48   1.414       .  A
C47         C964   1.419       .  A
C47         C619   1.504       .  S
C48         C961   1.429       .  A
C48         C607   1.512       .  S
C49          C50   1.423   1_556  A
C49          C54   1.427       .  A
C49         C538   1.474   1_556  S
C50          C51   1.402       .  A
C50         C811   1.513       .  S
C51          C52   1.427   1_554  A
C51         C646   1.487       .  S
C52          C53   1.427       .  A
C52         C550   1.485       .  S
C53          C54   1.416       .  A
C53         C559   1.513       .  S
C54         C571   1.500       .  S
C55          C60   1.424   1_655  A
C55        C1892   1.421   1_556  A
C55         C499   1.475   1_556  S
C56          C57   1.417       .  A
C56        C1891   1.423   1_554  A
C56         C631   1.523       .  S
C57        C1894   1.428   1_554  A
C57         C778   1.499       .  S
C58          C59   1.422   1_654  A
C58        C1893   1.432       .  A
C58         C490   1.483   1_655  S
C59          C60   1.408       .  A
C59         C523   1.501       .  S
C60         C514   1.496       .  S
C61          C62   1.428       .  A
C61          C66   1.428       .  A
C61         C418   1.473       .  S
C62          C63   1.404       .  A
C62         C475   1.510       .  S
C63          C64   1.420       .  A
C63         C463   1.497       .  S
C64          C65   1.434       .  A
C64         C427   1.472       .  S
C65          C66   1.414       .  A
C65         C439   1.508       .  S
C66         C451   1.518       .  S
C67          C68   1.421       .  A
C67          C72   1.407       .  A
C67         C574   1.484       .  S
C68          C69   1.412       .  A
C68         C526   1.533       .  S
C69          C70   1.416       .  A
C69          H74   1.081       .  S
C70          C71   1.423       .  A
C70         C406   1.490       .  S
C71          C72   1.409       .  A
C71         C454   1.527       .  S
C72          H73   1.082       .  S
C75          C76   1.437       .  A
C75          C80   1.415       .  A
C75         C511   1.535       .  S
C76          C77   1.419       .  A
C76         C610   1.500       .  S
C77          C78   1.410       .  A
C77          H82   1.084       .  S
C78          C79   1.412       .  A
C78         C442   1.489       .  S
C79          C80   1.401       .  A
C79         C394   1.509       .  S
C80          H81   1.075       .  S
C83          C84   1.427       .  A
C83          C88   1.436       .  A
C83         C334   1.472       .  S
C84          C85   1.407       .  A
C84         C358   1.513       .  S
C85          C86   1.426       .  A
C85         C403   1.510       .  S
C86          C87   1.426       .  A
C86         C343   1.462       .  S
C87          C88   1.426       .  A
C87         C382   1.527       .  S
C88         C370   1.516       .  S
C89          C90   1.424       .  A
C89          C94   1.434       .  A
C89         C271   1.466       .  S
C90          C91   1.395       .  A
C90         C391   1.501       .  S
C91          C92   1.419       .  A
C91         C295   1.508       .  S
C92          C93   1.425       .  A
C92         C283   1.447       .  S
C93          C94   1.414       .  A
C93         C310   1.517       .  S
C94         C319   1.511       .  S
C95          C96   1.429       .  A
C95         C100   1.416       .  A
C95         C622   1.504       .  S
C96          C97   1.416       .  A
C96         C562   1.530       .  S
C97          C98   1.409       .  A
C97         H102   1.084       .  S
C98          C99   1.421       .  A
C98         C298   1.491       .  S
C99         C100   1.417       .  A
C99         C355   1.534       .  S
C100        H101   1.082       .  S
C103        C104   1.433       .  A
C103        C108   1.410   1_455  A
C103        C742   1.498       .  S
C104        C105   1.421       .  A
C104        C874   1.537       .  S
C105       C1942   1.413   1_455  A
C105        H110   1.078       .  S
C106        C107   1.426       .  A
C106       C1941   1.417       .  A
C106        C379   1.522       .  S
C107       C1944   1.417       .  A
C107        C322   1.524       .  S
C108       C1943   1.412       .  A
C108        H109   1.085       .  S
C111        C112   1.429       .  A
C111        C116   1.430       .  A
C111        C691   1.512       .  S
C112        C113   1.406       .  A
C112        C883   1.524       .  S
C113        C114   1.406       .  A
C113        H118   1.079       .  S
C114        C115   1.424       .  A
C114        C478   1.512       .  S
C115        C116   1.422       .  A
C115        C307   1.518       .  S
C116        H117   1.082       .  S
C119        C120   1.439       .  A
C119       C1042   1.419       .  A
C119        C679   1.524       .  S
C120       C1039   1.424       .  A
C120        C751   1.537       .  S
C121        C122   1.420       .  A
C121       C1038   1.424   1_545  A
C121        H126   1.081       .  S
C122        C123   1.430       .  A
C122        C466   1.544       .  S
C123        C124   1.414       .  A
C123        C367   1.504       .  S
C124       C1037   1.418   1_545  A
C124        H125   1.082       .  S
O127        C162   1.236       .  S
O127       Mg135   2.131   1_556  S
O127      Mg1047   2.113   1_545  S
C128        H167   1.081       .  S
C128        O141   1.237       .  S
C128        O165   1.274       .  A
Mg129       O158   2.143   1_556  S
Mg129      O1045   2.127       .  S
Mg129       O173   2.274   1_556  S
Mg129       O169   2.224       .  S
Mg129       O140   2.286       .  S
O130        C151   1.234       .  S
O130       Mg172   2.121   1_556  S
O130       Mg155   2.138   1_556  S
O131       C1998   1.268       .  A
O131       Mg155   2.296   1_656  S
C132       C2338   1.444       .  S
C132        O134   1.265       .  A
C132       O1982   1.266       .  A
O133       C1079   1.269       .  A
O133       Mg135   2.300   1_565  S
O134       Mg166   2.211       .  S
Mg135      O1977   2.094       .  S
Mg135       O149   2.195       .  S
Mg135       O137   2.263       .  S
C136        C598   1.445       .  S
C136        O142   1.271   1_565  A
C136       O1092   1.261       .  A
O137       C1980   1.267   1_554  A
H138        C151   1.081       .  S
C139        H164   1.071       .  S
C139        O153   1.236       .  S
C139       O1990   1.265   1_455  A
O140        C163   1.268       .  A
O141       Mg155   2.140       .  S
O141      Mg1971   2.112   1_455  S
O142       Mg172   2.291   1_556  S
C143        C535   1.448       .  S
C143        O156   1.264       .  A
C143        O148   1.259       .  A
C144        C487   1.459       .  S
C144        O171   1.265       .  A
C144       O1973   1.270   1_455  A
Mg145       O153   2.155   1_556  S
Mg145      O1988   2.116   1_455  S
Mg145       O146   2.246   1_556  S
Mg145       O147   2.293       .  S
Mg145       O174   2.207       .  S
O146       C1968   1.264   1_455  A
O147       C1069   1.266       .  A
O148       Mg155   2.234       .  S
O149        C168   1.262       .  A
O150        C170   1.268   1_554  A
O150       Mg166   2.267       .  S
C151       O1065   1.268       .  A
O152        C163   1.236       .  S
O152       Mg166   2.140   1_556  S
O152      Mg1981   2.116       .  S
O153      Mg1090   2.135       .  S
O154       C1975   1.269       .  A
O154       Mg166   2.293       .  S
Mg155       O171   2.237       .  S
O156       Mg172   2.252       .  S
H157        C162   1.081       .  S
O158        C161   1.233       .  S
O158       Mg166   2.115       .  S
H159        C161   1.081       .  S
H160        C163   1.081       .  S
C161       O1051   1.268       .  A
C162       O1967   1.269       .  A
O165       Mg172   2.318       .  S
C168        C586   1.437       .  S
C168       O1091   1.265   1_545  A
O169        C170   1.268       .  A
C170        C547   1.465       .  S
Mg172      O1071   2.119   1_545  S
O173       C1086   1.267       .  A
O174       C1054   1.263       .  A
O175        C210   1.238       .  S
O175       Mg177   2.154       .  S
O175       Mg183   2.153       .  S
C176        H215   1.081       .  S
C176        O189   1.236       .  S
C176        O213   1.271       .  A
Mg177       O206   2.167       .  S
Mg177       O221   2.329       .  S
Mg177       O217   2.282       .  S
Mg177       O188   2.306       .  S
O178        C199   1.235       .  S
O178       Mg220   2.144       .  S
O178       Mg203   2.116       .  S
O179        C210   1.276       .  A
O179       Mg203   2.332       .  S
C180        C658   1.481       .  S
C180        O182   1.272       .  A
C180        O194   1.266       .  A
O181        C209   1.270       .  A
O181       Mg183   2.307       .  S
O182       Mg214   2.280       .  S
Mg183       O189   2.104       .  S
Mg183       O197   2.159       .  S
Mg183       O185   2.270       .  S
C184        C859   1.440       .  S
C184        O222   1.264       .  A
C184        O190   1.263       .  A
O185        C192   1.262       .  A
H186        C199   1.081       .  S
C187        H212   1.081       .  S
C187        O201   1.238       .  S
C187        O202   1.274       .  A
O188        C211   1.268       .  A
O189       Mg203   2.117       .  S
O190       Mg220   2.223       .  S
C191        C730   1.463       .  S
C191        O204   1.265       .  A
C191        O196   1.259       .  A
C192        C670   1.462       .  S
C192        O219   1.260       .  A
Mg193       O200   2.121       .  S
Mg193       O201   2.147       .  S
Mg193       O194   2.278       .  S
Mg193       O195   2.301       .  S
Mg193       O222   2.211       .  S
O195        C199   1.269       .  A
O196       Mg203   2.263       .  S
O197        C216   1.257       .  A
O198        C218   1.268       .  A
O198       Mg214   2.289       .  S
O200        C211   1.233       .  S
O200       Mg214   2.105       .  S
O201       Mg220   2.140       .  S
O202       Mg214   2.319       .  S
Mg203       O219   2.219       .  S
O204       Mg220   2.270       .  S
H205        C210   1.081       .  S
O206        C209   1.234       .  S
O206       Mg214   2.173       .  S
H207        C209   1.081       .  S
H208        C211   1.081       .  S
O213       Mg220   2.310       .  S
C216        C850   1.471       .  S
C216        O221   1.279       .  A
O217        C218   1.275       .  A
C218        C718   1.469       .  S
O223        C258   1.235       .  S
O223       Mg225   2.132       .  S
O223       Mg231   2.129       .  S
C224        H263   1.081       .  S
C224        O237   1.239       .  S
C224        O261   1.274       .  A
Mg225       O254   2.118       .  S
Mg225       O269   2.255       .  S
Mg225       O265   2.213       .  S
Mg225       O236   2.297       .  S
O226        C247   1.235       .  S
O226       Mg268   2.114       .  S
O226       Mg251   2.104       .  S
O227        C258   1.269       .  A
O227       Mg251   2.307       .  S
C228        C415   1.455       .  S
C228        O230   1.266       .  A
C228        O242   1.263       .  A
O229        C257   1.271       .  A
O229       Mg231   2.312       .  S
O230       Mg262   2.222       .  S
Mg231       O237   2.125       .  S
Mg231       O245   2.254       .  S
Mg231       O233   2.296       .  S
C232        C286   1.422       .  S
C232        O270   1.257       .  A
C232        O238   1.260       .  A
O233        C240   1.272       .  A
H234        C247   1.081       .  S
C235        H260   1.081       .  S
C235        O249   1.234       .  S
C235        O250   1.268       .  A
O236        C259   1.270       .  A
O237       Mg251   2.133       .  S
O238       Mg268   2.244       .  S
C239        C331   1.458       .  S
C239        O252   1.260       .  A
C239        O244   1.261       .  A
C240        C430   1.444       .  S
C240        O267   1.262       .  A
Mg241       O248   2.080       .  S
Mg241       O249   2.143       .  S
Mg241       O242   2.239       .  S
Mg241       O243   2.301       .  S
Mg241       O270   2.166       .  S
O243        C247   1.269       .  A
O244       Mg251   2.250       .  S
O245        C264   1.268       .  A
O246        C266   1.263       .  A
O246       Mg262   2.243       .  S
O248        C259   1.237       .  S
O248       Mg262   2.129       .  S
O249       Mg268   2.111       .  S
O250       Mg262   2.296       .  S
Mg251       O267   2.197       .  S
O252       Mg268   2.224       .  S
H253        C258   1.081       .  S
O254        C257   1.235       .  S
O254       Mg262   2.105       .  S
H255        C257   1.082       .  S
H256        C259   1.081       .  S
O261       Mg268   2.321       .  S
C264        C274   1.458       .  S
C264        O269   1.260       .  A
O265        C266   1.264       .  A
C266        C346   1.437       .  S
C271        C272   1.399       .  A
C271        C276   1.401       .  A
C272       C2109   1.382       .  A
C272        H277   1.083       .  S
C273        C274   1.403       .  A
C273       C2108   1.388       .  A
C273        O278   1.372       .  S
C274        C275   1.403       .  A
C275       C2112   1.398   1_455  A
C275        H279   1.084       .  S
C276       C2111   1.393       .  A
C276        O280   1.371       .  S
O278        H282   0.992       .  S
O280        H281   0.991       .  S
C283        C284   1.398       .  A
C283        C288   1.400       .  A
C284        C285   1.379       .  A
C284        H289   1.084       .  S
C285        C286   1.395       .  A
C285        O290   1.368       .  S
C286        C287   1.398       .  A
C287        C288   1.383       .  A
C287        H291   1.085       .  S
C288        O292   1.373       .  S
O290        H294   0.991       .  S
O292        H293   0.989       .  S
C295        C296   1.403       .  A
C295        C300   1.413       .  A
C296        C297   1.407       .  A
C296        H301   1.083       .  S
C297        C298   1.414       .  A
C297        O302   1.373       .  S
C298        C299   1.402       .  A
C299        C300   1.404       .  A
C299        H303   1.081       .  S
C300        O304   1.370       .  S
O302        H306   0.991       .  S
O304        H305   0.992       .  S
C307        C308   1.407       .  A
C307        C312   1.419       .  A
C308        C309   1.412       .  A
C308        H313   1.082       .  S
C309        C310   1.417       .  A
C309        O314   1.370       .  S
C310        C311   1.400       .  A
C311        C312   1.410       .  A
C311        H315   1.083       .  S
C312        O316   1.369       .  S
O314        H318   0.990       .  S
O316        H317   0.993       .  S
C319        C320   1.394       .  A
C319        C324   1.414       .  A
C320        C321   1.389       .  A
C320        H325   1.081       .  S
C321        C322   1.423       .  A
C321       O2162   1.371       .  S
C322        C323   1.416       .  A
C323        C324   1.424       .  A
C323        H327   1.080       .  S
C324        O328   1.371       .  S
O326       C2157   1.371   1_455  S
O326        H330   0.992       .  S
O328        H329   0.992       .  S
C331        C332   1.396       .  A
C331        C336   1.409       .  A
C332       C1251   1.392       .  A
C332        H337   1.081       .  S
C333        C334   1.410       .  A
C333       C1250   1.391   1_545  A
C333        O338   1.376       .  S
C334       C1253   1.399       .  A
C335        C336   1.393       .  A
C335       C1252   1.399       .  A
C335        H339   1.084       .  S
C336        O340   1.372       .  S
O338        H342   0.994       .  S
O340        H341   0.990       .  S
C343        C344   1.396       .  A
C343       C2184   1.407       .  A
C344       C2181   1.383       .  A
C344        H349   1.084       .  S
C345        C346   1.403       .  A
C345       C2180   1.384   1_455  A
C345        O350   1.373       .  S
C346        C347   1.398       .  A
C347        C348   1.391       .  A
C347        H351   1.084       .  S
C348       C2179   1.404   1_455  A
C348        O352   1.373   1_455  S
O350       H2190   0.991       .  S
O352        H353   0.994   1_655  S
H354       O2186   0.991       .  S
C355        C356   1.419       .  A
C355        C360   1.425       .  A
C356       C1275   1.399       .  A
C356        H361   1.078       .  S
C357        C358   1.402       .  A
C357       C1274   1.401       .  A
C357        O362   1.373       .  S
C358        C359   1.404       .  A
C359       C1278   1.416   1_545  A
C359        H363   1.083       .  S
C360       C1277   1.414       .  A
C360        O364   1.366       .  S
O362        H366   0.992       .  S
O364        H365   0.992       .  S
C367        C368   1.410       .  A
C367        C372   1.409       .  A
C368        C369   1.413       .  A
C368        H373   1.082       .  S
C369        C370   1.412       .  A
C369        O374   1.373       .  S
C370        C371   1.407       .  A
C371        C372   1.409       .  A
C371        H375   1.073       .  S
C372       O1294   1.377       .  S
O374        H378   0.992       .  S
O376       C1290   1.372       .  S
O376        H377   0.992       .  S
C379        C380   1.410       .  A
C379        C384   1.416       .  A
C380        C381   1.422       .  A
C380        H385   1.083       .  S
C381        C382   1.422       .  A
C381        O386   1.371       .  S
C382        C383   1.403       .  A
C383        C384   1.404       .  A
C383        H387   1.074       .  S
C384        O388   1.372       .  S
O386        H390   0.992       .  S
O388        H389   0.992       .  S
C391        C392   1.397       .  A
C391       C2232   1.404       .  A
C392        C393   1.405       .  A
C392        H397   1.083       .  S
C393       C2230   1.422       .  A
C393        O398   1.372       .  S
C394        C395   1.410       .  A
C394       C2229   1.418       .  A
C395        C396   1.404   1_455  A
C395        H399   1.068       .  S
C396       C2227   1.405       .  A
C396        O400   1.371       .  S
O398        H402   0.992       .  S
O400        H401   0.991       .  S
C403        C408   1.411       .  A
C403       C2240   1.407       .  A
C404        C405   1.407       .  A
C404       C2239   1.409   1_455  A
C404        H409   1.082       .  S
C405        C406   1.404       .  A
C405        O410   1.366       .  S
C406       C2243   1.406       .  A
C407        C408   1.406       .  A
C407       C2242   1.405       .  A
C407        H411   1.084       .  S
C408        O412   1.370       .  S
O410        H414   0.992       .  S
O412        H413   0.993       .  S
C415        C416   1.397       .  A
C415        C420   1.410       .  A
C416        C417   1.388       .  A
C416        H421   1.081       .  S
C417        C418   1.404       .  A
C417        O422   1.374       .  S
C418        C419   1.400       .  A
C419        C420   1.393       .  A
C419        H423   1.084       .  S
C420        O424   1.372       .  S
O422        H426   0.991       .  S
O424        H425   0.992       .  S
C427        C432   1.401       .  A
C427       C1346   1.405       .  A
C428        C429   1.389       .  A
C428       C1345   1.403       .  A
C428        H433   1.082       .  S
C429        C430   1.399       .  A
C429        O434   1.372       .  S
C430        C431   1.399       .  A
C431       C1350   1.392       .  A
C431        H435   1.084       .  S
C432       C1349   1.389   1_545  A
C432        O436   1.372       .  S
O434        H438   0.992       .  S
O436        H437   0.992       .  S
C439        C440   1.408       .  A
C439        C444   1.410       .  A
C440       C1359   1.408   1_545  A
C440        H445   1.082       .  S
C441        C442   1.412       .  A
C441       C1358   1.408       .  A
C441        O446   1.369       .  S
C442        C443   1.399       .  A
C443       C1362   1.394       .  A
C443        H447   1.082       .  S
C444       C1361   1.397   1_545  A
C444        O448   1.370       .  S
O446       H1368   0.992       .  S
O448       H1367   0.992       .  S
H449       O1366   0.990       .  S
H450       O1364   0.990       .  S
C451        C452   1.397       .  A
C451        C456   1.414       .  A
C452        C453   1.397       .  A
C452        H457   1.084       .  S
C453        C454   1.425       .  A
C453        O458   1.372       .  S
C454        C455   1.416       .  A
C455        C456   1.422       .  A
C455        H459   1.080       .  S
C456        O460   1.372       .  S
O458        H462   0.991       .  S
O460        H461   0.990       .  S
C463        C464   1.401       .  A
C463        C468   1.401       .  A
C464        C465   1.405       .  A
C464        H469   1.083       .  S
C465        C466   1.419       .  A
C465        O470   1.364       .  S
C466        C467   1.419       .  A
C467        C468   1.403       .  A
C467       H1389   1.075       .  S
C468        O472   1.371       .  S
O470        H474   0.991       .  S
H471       C1385   1.074       .  S
O472       H1391   0.992       .  S
H473       O1390   0.992       .  S
C475        C476   1.393       .  A
C475        C480   1.420       .  A
C476        C477   1.381       .  A
C476        H481   1.080       .  S
C477        C478   1.418       .  A
C477        O482   1.374       .  S
C478        C479   1.410       .  A
C479        C480   1.422       .  A
C479        H483   1.081       .  S
C480        O484   1.371       .  S
O482        H486   0.991       .  S
O484        H485   0.992       .  S
C487        C492   1.404       .  A
C487       C2324   1.397   1_454  A
C488        C489   1.397       .  A
C488       C2323   1.398       .  A
C488        H493   1.084       .  S
C489       C2326   1.412       .  A
C489        O494   1.376       .  S
C490        C491   1.401       .  A
C490       C2325   1.412   1_454  A
C491        C492   1.396       .  A
C491        H495   1.084       .  S
C492        O496   1.371       .  S
O494        H498   0.993       .  S
O496        H497   0.993       .  S
C499        C504   1.403   1_655  A
C499       C2336   1.401   1_554  A
C500        C501   1.387       .  A
C500       C2335   1.395   1_556  A
C500        H505   1.083       .  S
C501       C2338   1.401   1_556  A
C501        O506   1.371       .  S
C502        C503   1.402   1_655  A
C502       C2337   1.401   1_554  A
C502       C1968   1.450       .  S
C503        C504   1.394       .  A
C503        H507   1.084       .  S
C504        O508   1.371       .  S
O506        H510   0.992       .  S
O508        H509   0.992       .  S
C511        C512   1.425       .  A
C511        C516   1.421       .  A
C512        C513   1.387       .  A
C512        H517   1.076       .  S
C513        C514   1.393       .  A
C513        O518   1.372   1_455  S
C514        C515   1.405       .  A
C515        C516   1.415       .  A
C515        H519   1.079       .  S
C516        O520   1.367       .  S
O518       H2358   0.991       .  S
O520        H521   0.990       .  S
H522       O2354   0.994       .  S
C523        C524   1.395       .  A
C523        C528   1.404       .  A
C524        C525   1.402       .  A
C524       H2365   1.083   1_455  S
C525        C526   1.430       .  A
C525        O530   1.370       .  S
C526        C527   1.415       .  A
C527        C528   1.412       .  A
C527        H531   1.073       .  S
C528        O532   1.374       .  S
H529       C2360   1.081       .  S
O530       H2370   0.992       .  S
O532        H533   0.992       .  S
H534       O2366   0.995       .  S
C535        C536   1.395       .  A
C535        C540   1.406   1_554  A
C536        C537   1.393       .  A
C536        H541   1.079       .  S
C537        C538   1.406       .  A
C537        O542   1.373       .  S
C538        C539   1.398   1_554  A
C539        C540   1.392       .  A
C539        H543   1.081       .  S
C540        O544   1.372       .  S
O542        H546   0.992       .  S
O544        H545   0.992       .  S
C547        C548   1.404       .  A
C547        C552   1.406       .  A
C548        C549   1.399       .  A
C548        H553   1.084       .  S
C549        C550   1.407       .  A
C549        O554   1.372       .  S
C550        C551   1.401       .  A
C551        C552   1.388       .  A
C551        H555   1.084   1_556  S
C552        O556   1.371   1_556  S
O554        H558   0.991       .  S
O556        H557   0.993       .  S
C559        C560   1.410       .  A
C559        C564   1.403       .  A
C560        C561   1.421       .  A
C560        H565   1.083       .  S
C561        C562   1.419       .  A
C561        O566   1.368       .  S
C562        C563   1.417       .  A
C563        C564   1.393       .  A
C563        H567   1.078       .  S
C564        O568   1.372       .  S
O566        H570   0.991       .  S
O568        H569   0.990       .  S
C571        C572   1.411       .  A
C571        C576   1.408       .  A
C572        C573   1.404       .  A
C572        H577   1.083   1_556  S
C573        C574   1.404       .  A
C573        O578   1.372       .  S
C574        C575   1.407       .  A
C575        C576   1.401       .  A
C575        H579   1.084       .  S
C576        O580   1.372       .  S
O578        H582   0.991       .  S
O580        H581   0.993       .  S
C583        C588   1.400   1_565  A
C583       C1502   1.399   1_556  A
C584        C585   1.392       .  A
C584       C1501   1.401       .  A
C584        H589   1.083       .  S
C585       C1504   1.402       .  A
C585        O590   1.371       .  S
C586        C587   1.400   1_554  A
C586       C1503   1.400   1_545  A
C587        C588   1.388       .  A
C587        H591   1.084       .  S
C588        O592   1.373       .  S
O590        H594   0.991       .  S
O592        H593   0.992       .  S
C595        C600   1.407   1_565  A
C595       C1514   1.396   1_556  A
C596        C597   1.385       .  A
C596       C1513   1.398   1_554  A
C596        H601   1.084       .  S
C597       C1516   1.404   1_554  A
C597        O602   1.371       .  S
C598        C599   1.396   1_565  A
C598       C1515   1.404   1_556  A
C599        C600   1.394       .  A
C599        H603   1.081       .  S
C600        O604   1.374       .  S
O602        H606   0.992       .  S
O604        H605   0.993       .  S
C607        C608   1.400       .  A
C607        C612   1.418       .  A
C608        C609   1.402       .  A
C608        H613   1.075       .  S
C609        C610   1.413       .  A
C609        O614   1.370       .  S
C610        C611   1.406       .  A
C611        C612   1.411       .  A
C611        H615   1.083       .  S
C612        O616   1.371   1_556  S
O614        H618   0.988       .  S
O616        H617   0.993       .  S
C619        C620   1.408       .  A
C619        C624   1.408       .  A
C620        C621   1.413       .  A
C620        H625   1.083   1_556  S
C621        C622   1.409       .  A
C621        O626   1.370       .  S
C622        C623   1.411       .  A
C623        C624   1.405       .  A
C623        H627   1.083       .  S
C624        O628   1.374       .  S
O626        H630   0.989       .  S
O628        H629   0.990       .  S
C631        C632   1.403       .  A
C631        C636   1.419       .  A
C632        C633   1.403       .  A
C632        H637   1.070       .  S
C633        C634   1.409       .  A
C633        O638   1.371       .  S
C634        C635   1.406       .  A
C635        C636   1.416       .  A
C635        H639   1.083       .  S
C636        O640   1.371   1_554  S
O638        H642   0.991       .  S
O640        H641   0.991       .  S
C643        C644   1.414       .  A
C643        C648   1.424       .  A
C644        C645   1.410       .  A
C644        H649   1.079       .  S
C645        C646   1.407       .  A
C645        O650   1.371       .  S
C646        C647   1.391       .  A
C647        C648   1.386       .  A
C647        H651   1.084       .  S
C648        O652   1.373       .  S
O650        H654   0.991   1_554  S
O652        H653   0.993       .  S
C655        C660   1.409       .  A
C655       C1574   1.408       .  A
C656        C657   1.405   1_565  A
C656       C1573   1.404       .  A
C656        H661   1.083       .  S
C657        C658   1.412       .  A
C657        O662   1.371       .  S
C658        C659   1.400       .  A
C659       C1578   1.398   1_545  A
C659        H663   1.084       .  S
C660       C1577   1.396       .  A
C660        O664   1.369       .  S
O662        H666   0.991       .  S
O664        H665   0.992       .  S
C667        C668   1.398       .  A
C667        C672   1.407       .  A
C668        C669   1.391       .  A
C668        H673   1.084       .  S
C669        C670   1.411       .  A
C669        O674   1.372       .  S
C670        C671   1.399       .  A
C671        C672   1.396       .  A
C671        H675   1.083       .  S
C672        O676   1.375       .  S
O674        H678   0.990       .  S
O676        H677   0.991       .  S
C679        C680   1.410       .  A
C679        C684   1.423       .  A
C680        C681   1.417       .  A
C680        H685   1.081       .  S
C681        C682   1.415       .  A
C681        O686   1.370       .  S
C682        C683   1.400       .  A
C683        C684   1.408       .  A
C683        H687   1.080       .  S
C684        O688   1.376       .  S
O686        H690   0.991       .  S
O688        H689   0.992       .  S
C691        C692   1.406       .  A
C691        C696   1.414       .  A
C692        C693   1.408       .  A
C692        H697   1.076       .  S
C693        C694   1.414       .  A
C693        O698   1.369       .  S
C694        C695   1.401       .  A
C695        C696   1.401       .  A
C695        H699   1.077       .  S
C696        O700   1.368       .  S
O698        H702   0.991       .  S
O700        H701   0.992       .  S
C703        C704   1.415       .  A
C703        C708   1.411       .  A
C704        C705   1.417       .  A
C704        H709   1.083       .  S
C705        C706   1.409       .  A
C705        O710   1.373       .  S
C706        C707   1.411       .  A
C707        C708   1.411       .  A
C707        H711   1.084       .  S
C708        O712   1.369       .  S
O710        H714   0.991       .  S
O712        H713   0.991       .  S
C715        C716   1.404       .  A
C715        C720   1.416       .  A
C716       C1635   1.396       .  A
C716        H721   1.070       .  S
C717        C718   1.403       .  A
C717       C1634   1.391       .  A
C717        O722   1.372       .  S
C718        C719   1.406       .  A
C719       C1638   1.405   1_545  A
C719        H723   1.083       .  S
C720       C1637   1.407       .  A
C720        O724   1.368       .  S
O722       H1644   0.992       .  S
O724       H1643   0.991       .  S
H725       O1642   0.993       .  S
H726       O1640   0.992       .  S
C727        C728   1.399       .  A
C727        C732   1.409       .  A
C728       C2565   1.391   1_455  A
C728        H733   1.083       .  S
C729        C730   1.404       .  A
C729       C2564   1.393       .  A
C729        O734   1.373       .  S
C730        C731   1.401       .  A
C731       C2568   1.403       .  A
C731        H735   1.084       .  S
C732       C2567   1.403   1_455  A
C732        O736   1.372       .  S
O734        H738   0.992       .  S
O736       H2573   0.992       .  S
H737       O2572   0.992       .  S
C739        C740   1.413       .  A
C739        C744   1.408       .  A
C740        C741   1.411       .  A
C740        H745   1.083       .  S
C741        C742   1.407       .  A
C741       O2582   1.372       .  S
C742        C743   1.410       .  A
C743        C744   1.408       .  A
C743        H747   1.083       .  S
C744        O748   1.372       .  S
O746       C2577   1.374       .  S
O746        H750   0.990       .  S
O748        H749   0.993       .  S
C751        C752   1.419       .  A
C751        C756   1.429       .  A
C752        C753   1.427       .  A
C752        H757   1.080       .  S
C753        C754   1.418       .  A
C753        O758   1.371       .  S
C754        C755   1.390       .  A
C755        C756   1.390       .  A
C755        H759   1.080       .  S
C756       O1678   1.367       .  S
O758        H762   0.992       .  S
O760       C1674   1.369   1_545  S
O760        H761   0.992       .  S
C763        C768   1.405       .  A
C763       C2600   1.390       .  A
C764        C765   1.387       .  A
C764       C2599   1.388       .  A
C764        H769   1.083       .  S
C765        C766   1.426       .  A
C765        O770   1.370       .  S
C766       C2603   1.409       .  A
C767        C768   1.417   1_655  A
C767       C2602   1.419       .  A
C767        H771   1.075       .  S
C768        O772   1.370       .  S
O770        H774   0.993       .  S
O772        H773   0.991       .  S
C775        C776   1.413       .  A
C775        C780   1.414       .  A
C776        C777   1.408       .  A
C776        H781   1.083       .  S
C777        C778   1.407       .  A
C777        O782   1.377       .  S
C778        C779   1.400       .  A
C779        C780   1.407       .  A
C779        H783   1.077   1_554  S
C780        O784   1.379       .  S
O782        H786   0.993       .  S
O784        H785   0.991   1_554  S
C787        C788   1.413       .  A
C787        C792   1.420       .  A
C788        C789   1.410       .  A
C788        H793   1.067       .  S
C789        C790   1.405       .  A
C789        O794   1.371       .  S
C790        C791   1.400       .  A
C791        C792   1.399       .  A
C791       H1713   1.083       .  S
C792        O796   1.370       .  S
O794        H798   0.992       .  S
H795       C1709   1.084       .  S
O796       H1715   0.991       .  S
H797       O1714   0.991       .  S
C799        C800   1.408       .  A
C799        C804   1.391       .  A
C800       C1719   1.424       .  A
C800        H805   1.083       .  S
C801        C802   1.423       .  A
C801       C1718   1.424   1_545  A
C801        O806   1.367       .  S
C802        C803   1.424   1_545  A
C803       C1722   1.388       .  A
C803        H807   1.070       .  S
C804       C1721   1.389       .  A
C804        O808   1.374       .  S
O806       H1728   0.992       .  S
O808       H1727   0.991       .  S
H809       O1726   0.992       .  S
H810       O1724   0.993       .  S
C811        C812   1.407       .  A
C811        C816   1.407       .  A
C812        C813   1.413       .  A
C812        H817   1.082       .  S
C813        C814   1.416       .  A
C813        O818   1.367       .  S
C814        C815   1.403       .  A
C815        C816   1.399       .  A
C815        H819   1.071       .  S
C816        O820   1.371   1_554  S
O818        H822   0.992       .  S
O820        H821   0.992       .  S
C823        C824   1.405       .  A
C823        C828   1.404       .  A
C824        C825   1.401       .  A
C824        H829   1.080       .  S
C825        C826   1.413       .  A
C825        O830   1.368       .  S
C826        C827   1.403       .  A
C827        C828   1.395       .  A
C827        H831   1.068       .  S
C828        O832   1.368   1_554  S
O830        H834   0.991       .  S
O832        H833   0.992       .  S
C835        C836   1.413       .  A
C835       C1758   1.414       .  A
C836        C837   1.409       .  A
C836        H841   1.081       .  S
C837       C1756   1.408       .  A
C837        O842   1.369       .  S
C838        C839   1.406       .  A
C838       C1755   1.428   1_545  A
C839        C840   1.409   1_545  A
C839        H843   1.067       .  S
C840       C1753   1.409       .  A
C840        O844   1.374       .  S
O842        H846   0.992       .  S
O844        H845   0.992       .  S
C847        C848   1.406       .  A
C847        C852   1.397       .  A
C848        C849   1.401       .  A
C848        H853   1.081       .  S
C849        C850   1.417       .  A
C849        O854   1.369       .  S
C850        C851   1.395       .  A
C851        C852   1.389       .  A
C851        H855   1.075       .  S
C852        O856   1.365       .  S
O854        H858   0.992       .  S
O856        H857   0.991       .  S
C859        C860   1.402       .  A
C859        C864   1.398       .  A
C860       C2697   1.390       .  A
C860        H865   1.084       .  S
C861        C862   1.402       .  A
C861       C2696   1.394   1_455  A
C861        O866   1.373       .  S
C862        C863   1.398       .  A
C863       C2700   1.386   1_455  A
C863        H867   1.082       .  S
C864       C2699   1.383       .  A
C864        O868   1.373       .  S
O866        H870   0.991       .  S
O868        H869   0.992       .  S
C871        C872   1.406       .  A
C871        C876   1.400       .  A
C872        C873   1.411       .  A
C872        H877   1.083       .  S
C873        C874   1.421       .  A
C873        O878   1.367       .  S
C874        C875   1.423       .  A
C875        C876   1.399       .  A
C875       H2715   1.078       .  S
C876        O880   1.371       .  S
O878        H882   0.992       .  S
H879       C2711   1.077       .  S
O880       H2717   0.990       .  S
H881       O2716   0.992       .  S
C883        C884   1.410       .  A
C883        C888   1.418       .  A
C884        C885   1.396       .  A
C884        H889   1.082       .  S
C885        C886   1.408       .  A
C885        O890   1.369       .  S
C886        C887   1.417       .  A
C887        C888   1.418       .  A
C887        H891   1.073       .  S
C888        O892   1.370       .  S
O890        H894   0.991       .  S
O892        H893   0.992       .  S
C895        C896   1.413       .  A
C895        C900   1.404       .  A
C896       C2733   1.417   1_455  A
C896        H901   1.081       .  S
C897        C898   1.414       .  A
C897       C2732   1.421       .  A
C897        O902   1.374       .  S
C898        C899   1.416       .  A
C899       C2736   1.403       .  A
C899        H903   1.085       .  S
C900       C2735   1.403   1_455  A
C900        O904   1.373       .  S
O902        H906   0.992       .  S
O904        H905   0.991       .  S
C907        C908   1.408       .  A
C907        C912   1.419       .  A
C908        C909   1.411       .  A
C908        H913   1.074       .  S
C909        C910   1.411       .  A
C909        O914   1.375       .  S
C910        C911   1.401       .  A
C911        C912   1.410       .  A
C911        H915   1.077       .  S
C912        O916   1.365       .  S
O914        H918   0.993       .  S
O916        H917   0.991       .  S
C919        C920   1.456       .  A
C919        C924   1.451       .  A
C919       C1765   1.533       .  S
C920        C921   1.422       .  A
C920       C1825   1.521       .  S
C921        C922   1.421       .  A
C921       C1813   1.512       .  S
C922        C923   1.417       .  A
C922       C1780   1.473       .  S
C923        C924   1.411       .  A
C923       C1789   1.510       .  S
C924       C1804   1.508       .  S
C925        C926   1.416       .  A
C925        C930   1.419       .  A
C925       C1828   1.510       .  S
C926        C927   1.411       .  A
C926       C1756   1.495       .  S
C927        C928   1.412       .  A
C927        H932   1.084       .  S
C928        C929   1.427       .  A
C928       C1744   1.499       .  S
C929        C930   1.413       .  A
C929       C1732   1.518       .  S
C930        H931   1.076       .  S
C933        C934   1.441       .  A
C933        C938   1.419       .  A
C933       C1816   1.510       .  S
C934        C935   1.422       .  A
C934       C1720   1.544       .  S
C935        C936   1.411       .  A
C935        H940   1.076       .  S
C936        C937   1.420       .  A
C936       C1705   1.530       .  S
C937        C938   1.411       .  A
C937       C1693   1.506       .  S
C938        H939   1.082       .  S
C941        C942   1.426       .  A
C941        C946   1.447       .  A
C941       C1633   1.497       .  S
C942        C943   1.407       .  A
C942       C1753   1.506       .  S
C943        C944   1.425       .  A
C943       C1681   1.502       .  S
C944        C945   1.431       .  A
C944       C1645   1.486       .  S
C945        C946   1.430       .  A
C945       C1657   1.519       .  S
C946       C1672   1.519       .  S
C947        C948   1.425       .  A
C947        C952   1.428       .  A
C947       C1585   1.484       .  S
C948        C949   1.422       .  A
C948       C1621   1.520       .  S
C949        C950   1.437       .  A
C949       C1717   1.498       .  S
C950        C951   1.430       .  A
C950       C1573   1.498       .  S
C951        C952   1.419       .  A
C951       C1600   1.514       .  S
C952       C1612   1.504       .  S
C953        C954   1.428       .  A
C953        C958   1.415       .  A
C953       C1624   1.505       .  S
C954        C955   1.415       .  A
C954       C1684   1.527       .  S
C955        C956   1.405       .  A
C955        H960   1.073       .  S
C956        C957   1.418       .  A
C956       C1552   1.503       .  S
C957        C958   1.416       .  A
C957       C1561   1.514       .  S
C958        H959   1.082       .  S
C961        C962   1.431   1_556  A
C961       C1513   1.469       .  S
C962        C963   1.410       .  A
C962       C1741   1.520       .  S
C963        C964   1.422   1_554  A
C963       C1708   1.497       .  S
C964       C1501   1.470   1_556  S
C965        C966   1.405       .  A
C965       C1537   1.499       .  S
C966       C1525   1.498       .  S
C967        C968   1.423   1_556  A
C967        C972   1.426       .  A
C967       C1456   1.473   1_556  S
C968        C969   1.403       .  A
C968       C1729   1.504       .  S
C969        C970   1.425   1_554  A
C969       C1564   1.503       .  S
C970        C971   1.425       .  A
C970       C1468   1.476       .  S
C971        C972   1.416       .  A
C971       C1477   1.509       .  S
C972       C1489   1.503       .  S
C973       C2810   1.428   1_556  A
C973        C978   1.431   1_655  A
C973       C1417   1.467       .  S
C974       C2809   1.425   1_554  A
C974        C975   1.420       .  A
C974       C1549   1.526       .  S
C975       C2812   1.430   1_554  A
C975       C1696   1.498       .  S
C976       C2811   1.426   1_556  A
C976        C977   1.422   1_655  A
C976       C1408   1.477       .  S
C977        C978   1.413       .  A
C977       C1441   1.505       .  S
C978       C1432   1.516       .  S
C979        C980   1.428       .  A
C979        C984   1.426       .  A
C979       C1336   1.475       .  S
C980        C981   1.408       .  A
C980       C1393   1.504       .  S
C981        C982   1.418       .  A
C981       C1381   1.499       .  S
C982        C983   1.432       .  A
C982       C1345   1.476       .  S
C983        C984   1.410       .  A
C983       C1357   1.504       .  S
C984       C1369   1.514       .  S
C985        C986   1.417       .  A
C985        C990   1.411       .  A
C985       C1492   1.484       .  S
C986        C987   1.410       .  A
C986       C1444   1.526       .  S
C987        C988   1.414       .  A
C987        H992   1.082       .  S
C988        C989   1.423       .  A
C988       C1324   1.489       .  S
C989        C990   1.411       .  A
C989       C1372   1.527       .  S
C990        H991   1.082       .  S
C993        C994   1.429       .  A
C993        C998   1.410       .  A
C993       C1429   1.497       .  S
C994        C995   1.416       .  A
C994       C1528   1.523       .  S
C995        C996   1.409       .  A
C995       H1000   1.084       .  S
C996        C997   1.423       .  A
C996       C1360   1.494       .  S
C997        C998   1.412       .  A
C997       C1312   1.515       .  S
C998        H999   1.084       .  S
C1001      C1002   1.429       .  A
C1001      C1006   1.436       .  A
C1001      C1252   1.474       .  S
C1002      C1003   1.403       .  A
C1002      C1276   1.510       .  S
C1003      C1004   1.418       .  A
C1003      C1321   1.502       .  S
C1004      C1005   1.424       .  A
C1004      C1261   1.465       .  S
C1005      C1006   1.427       .  A
C1005      C1300   1.517       .  S
C1006      C1288   1.518       .  S
C1007      C1008   1.427       .  A
C1007      C1012   1.442       .  A
C1007      C1189   1.479       .  S
C1008      C1009   1.394       .  A
C1008      C1309   1.499       .  S
C1009      C1010   1.415       .  A
C1009      C1213   1.507       .  S
C1010      C1011   1.426       .  A
C1010      C1201   1.459       .  S
C1011      C1012   1.426       .  A
C1011      C1228   1.511       .  S
C1012      C1237   1.523       .  S
C1013      C1014   1.421       .  A
C1013      C1018   1.411       .  A
C1013      C1540   1.489       .  S
C1014      C1015   1.414       .  A
C1014      C1480   1.526       .  S
C1015      C1016   1.413       .  A
C1015      H1020   1.084       .  S
C1016      C1017   1.426       .  A
C1016      C1216   1.490       .  S
C1017      C1018   1.415       .  A
C1017      C1273   1.541       .  S
C1018      H1019   1.082       .  S
C1021      C1022   1.438       .  A
C1021      C1026   1.412   1_455  A
C1021      C1660   1.513       .  S
C1022      C1023   1.425       .  A
C1022      C1792   1.540       .  S
C1023      C2860   1.415   1_455  A
C1023      H1028   1.077       .  S
C1024      C2859   1.421       .  A
C1024      C1025   1.425       .  A
C1024      C1297   1.521       .  S
C1025      C2862   1.413       .  A
C1025      C1240   1.524       .  S
C1026      C2861   1.417       .  A
C1026      H1027   1.083       .  S
C1029      C1030   1.440       .  A
C1029      C1034   1.434       .  A
C1029      C1609   1.508       .  S
C1030      C1031   1.413       .  A
C1030      C1801   1.551       .  S
C1031      C1032   1.399       .  A
C1031      H1036   1.076       .  S
C1032      C1033   1.415       .  A
C1032      C1396   1.504       .  S
C1033      C1034   1.419       .  A
C1033      C1225   1.512       .  S
C1034      H1035   1.083       .  S
C1037      C1038   1.435       .  A
C1037      C1597   1.522       .  S
C1038      C1669   1.534       .  S
C1039      C1040   1.421       .  A
C1039      H1044   1.081       .  S
C1040      C1041   1.430       .  A
C1040      C1384   1.546       .  S
C1041      C1042   1.414       .  A
C1041      C1285   1.505       .  S
C1042      H1043   1.082       .  S
O1045      C1080   1.236       .  S
O1045     Mg1053   2.134   1_556  S
C1046      H1085   1.082       .  S
C1046      O1059   1.237       .  S
C1046      O1083   1.273       .  A
Mg1047     O1076   2.147   1_556  S
Mg1047     O1091   2.245   1_556  S
Mg1047     O1087   2.202       .  S
Mg1047     O1058   2.285       .  S
O1048      C1069   1.233       .  S
O1048     Mg1090   2.119   1_556  S
O1048     Mg1073   2.121   1_556  S
O1049      C2916   1.269       .  A
O1049     Mg1073   2.301   1_656  S
C1050      C3256   1.455       .  S
C1050      O1052   1.264       .  A
C1050      O2900   1.262       .  A
O1051     Mg1053   2.301       .  S
O1052     Mg1084   2.230       .  S
Mg1053     O2895   2.115       .  S
Mg1053     O1067   2.212       .  S
Mg1053     O1055   2.277       .  S
C1054      C1516   1.444       .  S
C1054      O1060   1.267       .  A
O1055      C2898   1.269       .  A
H1056      C1069   1.081       .  S
C1057      H1082   1.080       .  S
C1057      O1071   1.236       .  S
C1057      O2908   1.268   1_455  A
O1058      C1081   1.266       .  A
O1059     Mg2889   2.109   1_455  S
O1059     Mg1073   2.140       .  S
O1060     Mg1090   2.276   1_556  S
C1061      C1453   1.452       .  S
C1061      O1074   1.265       .  A
C1061      O1066   1.261       .  A
C1062      C1405   1.451       .  S
C1062      O2891   1.268   1_455  A
C1062      O1089   1.264       .  A
Mg1063     O2906   2.103   1_455  S
Mg1063     O1071   2.144   1_556  S
Mg1063     O1064   2.256   1_556  S
Mg1063     O1065   2.299   1_565  S
Mg1063     O1092   2.188       .  S
O1064      C2886   1.264   1_455  A
O1066     Mg1073   2.236       .  S
O1067      C1086   1.265       .  A
O1068      C1088   1.268   1_554  A
O1068     Mg1084   2.266       .  S
O1070      C1081   1.234       .  S
O1070     Mg2899   2.104   1_556  S
O1070     Mg1084   2.115   1_556  S
O1072      C2893   1.271       .  A
O1072     Mg1084   2.305       .  S
Mg1073     O1089   2.225       .  S
O1074     Mg1090   2.246       .  S
H1075      C1080   1.081       .  S
O1076      C1079   1.235       .  S
O1076     Mg1084   2.110       .  S
H1077      C1079   1.081       .  S
H1078      C1081   1.081       .  S
C1080      O2885   1.270       .  A
O1083     Mg1090   2.318       .  S
C1086      C1504   1.452       .  S
O1087      C1088   1.265       .  A
C1088      C1465   1.455       .  S
O1093      C1128   1.237       .  S
O1093     Mg1095   2.188       .  S
O1093     Mg1101   2.163       .  S
C1094      H1133   1.081       .  S
C1094      O1107   1.237       .  S
C1094      O1131   1.273       .  A
Mg1095     O1124   2.223       .  S
Mg1095     O1139   2.343       .  S
Mg1095     O1135   2.351       .  S
Mg1095     O1106   2.290       .  S
O1096      C1117   1.235       .  S
O1096     Mg1138   2.139       .  S
O1096     Mg1121   2.128       .  S
O1097      C1128   1.274       .  A
O1097     Mg1121   2.323       .  S
C1098      C1576   1.480       .  S
C1098      O1100   1.271       .  A
C1098      O1112   1.268       .  A
O1099      C1127   1.267       .  A
O1099     Mg1101   2.289       .  S
O1100     Mg1132   2.272       .  S
Mg1101     O1107   2.121       .  S
Mg1101     O1115   2.165       .  S
Mg1101     O1103   2.312       .  S
C1102      C1777   1.437       .  S
C1102      O1140   1.260       .  A
C1102      O1108   1.269       .  A
O1103      C1110   1.270       .  A
H1104      C1117   1.081       .  S
C1105      H1130   1.081       .  S
C1105      O1119   1.238       .  S
C1105      O1120   1.273       .  A
O1106      C1129   1.261       .  A
O1107     Mg1121   2.122       .  S
O1108     Mg1138   2.269       .  S
C1109      C1648   1.464       .  S
C1109      O1122   1.266       .  A
C1109      O1114   1.263       .  A
C1110      C1588   1.467       .  S
C1110      O1137   1.263       .  A
Mg1111     O1119   2.147       .  S
Mg1111     O1112   2.297       .  S
Mg1111     O1113   2.301       .  S
Mg1111     O1140   2.150       .  S
Mg1111     O1118   2.152       .  S
O1113      C1117   1.269       .  A
O1114     Mg1121   2.278       .  S
O1115      C1134   1.261       .  A
O1116      C1136   1.263       .  A
O1116     Mg1132   2.208       .  S
O1118     Mg1132   2.170       .  S
O1118      C1129   1.257       .  A
O1119     Mg1138   2.136       .  S
O1120     Mg1132   2.310       .  S
Mg1121     O1137   2.227       .  S
O1122     Mg1138   2.253       .  S
H1123      C1128   1.081       .  S
O1124      C1127   1.234       .  S
O1124     Mg1132   2.146       .  S
H1125      C1127   1.082       .  S
H1126      C1129   1.082       .  S
O1131     Mg1138   2.318       .  S
C1134      C1768   1.479       .  S
C1134      O1139   1.282       .  A
O1135      C1136   1.284       .  A
C1136      C1636   1.490       .  S
O1141      C1176   1.235       .  S
O1141     Mg1143   2.116       .  S
O1141     Mg1149   2.123       .  S
C1142      H1181   1.081       .  S
C1142      O1155   1.236       .  S
C1142      O1179   1.271       .  A
Mg1143     O1172   2.126       .  S
Mg1143     O1187   2.269       .  S
Mg1143     O1183   2.211       .  S
Mg1143     O1154   2.308       .  S
O1144      C1165   1.235       .  S
O1144     Mg1186   2.124       .  S
O1144     Mg1169   2.107       .  S
O1145      C1176   1.269       .  A
O1145     Mg1169   2.297       .  S
C1146      C1333   1.464       .  S
C1146      O1148   1.265       .  A
C1146      O1160   1.260       .  A
O1147      C1175   1.272       .  A
O1147     Mg1149   2.315       .  S
O1148     Mg1180   2.243       .  S
Mg1149     O1155   2.122       .  S
Mg1149     O1163   2.249       .  S
Mg1149     O1151   2.286       .  S
C1150      C1204   1.436       .  S
C1150      O1188   1.259       .  A
C1150      O1156   1.264       .  A
O1151      C1158   1.271       .  A
H1152      C1165   1.081       .  S
C1153      H1178   1.080       .  S
C1153      O1167   1.236       .  S
C1153      O1168   1.271       .  A
O1154      C1177   1.271       .  A
O1155     Mg1169   2.140       .  S
O1156     Mg1186   2.261       .  S
C1157      C1249   1.449       .  S
C1157      O1170   1.262       .  A
C1157      O1162   1.265       .  A
C1158      C1348   1.445       .  S
C1158      O1185   1.263       .  A
Mg1159     O1166   2.103       .  S
Mg1159     O1167   2.128       .  S
Mg1159     O1160   2.245       .  S
Mg1159     O1161   2.296       .  S
Mg1159     O1188   2.183       .  S
O1161      C1165   1.268       .  A
O1162     Mg1169   2.257       .  S
O1163      C1182   1.268       .  A
O1164      C1184   1.263       .  A
O1164     Mg1180   2.254       .  S
O1166      C1177   1.237       .  S
O1166     Mg1180   2.116       .  S
O1167     Mg1186   2.112       .  S
O1168     Mg1180   2.314       .  S
Mg1169     O1185   2.201       .  S
O1170     Mg1186   2.217       .  S
H1171      C1176   1.081       .  S
O1172      C1175   1.236       .  S
O1172     Mg1180   2.123       .  S
H1173      C1175   1.082       .  S
H1174      C1177   1.081       .  S
O1179     Mg1186   2.309       .  S
C1182      C1192   1.459       .  S
C1182      O1187   1.265       .  A
O1183      C1184   1.262       .  A
C1184      C1264   1.439       .  S
C1189      C1190   1.401       .  A
C1189      C1194   1.403       .  A
C1190      C3027   1.387       .  A
C1190      H1195   1.083       .  S
C1191      C3026   1.388   1_455  A
C1191      C1192   1.403       .  A
C1191      O1196   1.373       .  S
C1192      C1193   1.404       .  A
C1193      C3030   1.400   1_455  A
C1193      H1197   1.083       .  S
C1194      C3029   1.398       .  A
C1194      O1198   1.371       .  S
O1196      H1200   0.991       .  S
O1198      H1199   0.992       .  S
C1201      C1202   1.398       .  A
C1201      C1206   1.402       .  A
C1202      C1203   1.384       .  A
C1202      H1207   1.083       .  S
C1203      C1204   1.399       .  A
C1203      O1208   1.368       .  S
C1204      C1205   1.399       .  A
C1205      C1206   1.387       .  A
C1205      H1209   1.085       .  S
C1206      O1210   1.373       .  S
O1208      H1212   0.992       .  S
O1210      H1211   0.992       .  S
C1213      C1214   1.403       .  A
C1213      C1218   1.412       .  A
C1214      C1215   1.406       .  A
C1214      H1219   1.083       .  S
C1215      C1216   1.415       .  A
C1215      O1220   1.373       .  S
C1216      C1217   1.402       .  A
C1217      C1218   1.404       .  A
C1217      H1221   1.083       .  S
C1218      O1222   1.370       .  S
O1220      H1224   0.993       .  S
O1222      H1223   0.991       .  S
C1225      C1226   1.406       .  A
C1225      C1230   1.415       .  A
C1226      C1227   1.411       .  A
C1226      H1231   1.083       .  S
C1227      C1228   1.417       .  A
C1227      O1232   1.370       .  S
C1228      C1229   1.401       .  A
C1229      C1230   1.409       .  A
C1229      H1233   1.083       .  S
C1230      O1234   1.368       .  S
O1232      H1236   0.990       .  S
O1234      H1235   0.992       .  S
C1237      C1238   1.399       .  A
C1237      C1242   1.420       .  A
C1238      C1239   1.392       .  A
C1238      H1243   1.080       .  S
C1239      C1240   1.419       .  A
C1239      O3080   1.372       .  S
C1240      C1241   1.414       .  A
C1241      C1242   1.427       .  A
C1241      H1245   1.081       .  S
C1242      O1246   1.371       .  S
O1244      C3075   1.371       .  S
O1244      H1248   0.991   1_655  S
O1246      H1247   0.992       .  S
C1249      C1250   1.395       .  A
C1249      C1254   1.405       .  A
C1250      H1255   1.082       .  S
C1251      C1252   1.410       .  A
C1251      O1256   1.376       .  S
C1253      C1254   1.392   1_545  A
C1253      H1257   1.084       .  S
C1254      O1258   1.372       .  S
O1256      H1260   0.994       .  S
O1258      H1259   0.993       .  S
C1261      C1262   1.400       .  A
C1261      C3102   1.403       .  A
C1262      C3099   1.387       .  A
C1262      H1267   1.084       .  S
C1263      C3098   1.385   1_455  A
C1263      C1264   1.403       .  A
C1263      O1268   1.374       .  S
C1264      C1265   1.397       .  A
C1265      C1266   1.392   1_455  A
C1265      H1269   1.084       .  S
C1266      C3097   1.405       .  A
C1266      O1270   1.373       .  S
O1268      H3108   0.991       .  S
O1270      H1271   0.992   1_655  S
H1272      O3104   0.990       .  S
C1273      C1274   1.421   1_565  A
C1273      C1278   1.425       .  A
C1274      H1279   1.078   1_545  S
C1275      C1276   1.402       .  A
C1275      O1280   1.373       .  S
C1276      C1277   1.403       .  A
C1277      H1281   1.083       .  S
C1278      O1282   1.365       .  S
O1280      H1284   0.990       .  S
O1282      H1283   0.992       .  S
C1285      C1286   1.409       .  A
C1285      C1290   1.409       .  A
C1286      C1287   1.412       .  A
C1286      H1291   1.080       .  S
C1287      C1288   1.413       .  A
C1287      O1292   1.370       .  S
C1288      C1289   1.406       .  A
C1289      C1290   1.404       .  A
C1289      H1293   1.072       .  S
O1292      H1296   0.993       .  S
O1294      H1295   0.992       .  S
C1297      C1298   1.410       .  A
C1297      C1302   1.418       .  A
C1298      C1299   1.420       .  A
C1298      H1303   1.082       .  S
C1299      C1300   1.420       .  A
C1299      O1304   1.370       .  S
C1300      C1301   1.400       .  A
C1301      C1302   1.399       .  A
C1301      H1305   1.078       .  S
C1302      O1306   1.370       .  S
O1304      H1308   0.992       .  S
O1306      H1307   0.991       .  S
C1309      C1310   1.395       .  A
C1309      C3150   1.404       .  A
C1310      C1311   1.405       .  A
C1310      H1315   1.084       .  S
C1311      C3148   1.425       .  A
C1311      O1316   1.374       .  S
C1312      C3147   1.419   1_455  A
C1312      C1313   1.409       .  A
C1313      C1314   1.403   1_455  A
C1313      H1317   1.063       .  S
C1314      C3145   1.403       .  A
C1314      O1318   1.371       .  S
O1316      H1320   0.993       .  S
O1318      H1319   0.992       .  S
C1321      C3158   1.409       .  A
C1321      C1326   1.407       .  A
C1322      C3157   1.411   1_455  A
C1322      C1323   1.408       .  A
C1322      H1327   1.081       .  S
C1323      C1324   1.404       .  A
C1323      O1328   1.369       .  S
C1324      C3161   1.405       .  A
C1325      C3160   1.407       .  A
C1325      C1326   1.401       .  A
C1325      H1329   1.084       .  S
C1326      O1330   1.371       .  S
O1328      H1332   0.992       .  S
O1330      H1331   0.992       .  S
C1333      C1334   1.400       .  A
C1333      C1338   1.413       .  A
C1334      C1335   1.393       .  A
C1334      H1339   1.082       .  S
C1335      C1336   1.404       .  A
C1335      O1340   1.375       .  S
C1336      C1337   1.398       .  A
C1337      C1338   1.393       .  A
C1337      H1341   1.084       .  S
C1338      O1342   1.372       .  S
O1340      H1344   0.989       .  S
O1342      H1343   0.992       .  S
C1345      C1350   1.405       .  A
C1346      C1347   1.392   1_545  A
C1346      H1351   1.083       .  S
C1347      C1348   1.400       .  A
C1347      O1352   1.372       .  S
C1348      C1349   1.399       .  A
C1349      H1353   1.084       .  S
C1350      O1354   1.372       .  S
O1352      H1356   0.992       .  S
O1354      H1355   0.992       .  S
C1357      C1358   1.408       .  A
C1357      C1362   1.409       .  A
C1358      H1363   1.082       .  S
C1359      C1360   1.413       .  A
C1359      O1364   1.369       .  S
C1360      C1361   1.402       .  A
C1361      H1365   1.082       .  S
C1362      O1366   1.371       .  S
C1369      C1370   1.397       .  A
C1369      C1374   1.411       .  A
C1370      C1371   1.398       .  A
C1370      H1375   1.084       .  S
C1371      C1372   1.427       .  A
C1371      O1376   1.372       .  S
C1372      C1373   1.416       .  A
C1373      C1374   1.421       .  A
C1373      H1377   1.079       .  S
C1374      O1378   1.373       .  S
O1376      H1380   0.993       .  S
O1378      H1379   0.991       .  S
C1381      C1382   1.402       .  A
C1381      C1386   1.402       .  A
C1382      C1383   1.407       .  A
C1382      H1387   1.083       .  S
C1383      C1384   1.419       .  A
C1383      O1388   1.365       .  S
C1384      C1385   1.418       .  A
C1385      C1386   1.403       .  A
C1386      O1390   1.371       .  S
O1388      H1392   0.992       .  S
C1393      C1394   1.394       .  A
C1393      C1398   1.417       .  A
C1394      C1395   1.384       .  A
C1394      H1399   1.082       .  S
C1395      C1396   1.418       .  A
C1395      O1400   1.372       .  S
C1396      C1397   1.406       .  A
C1397      C1398   1.417       .  A
C1397      H1401   1.081       .  S
C1398      O1402   1.371       .  S
O1400      H1404   0.992       .  S
O1402      H1403   0.992       .  S
C1405      C3242   1.398   1_454  A
C1405      C1410   1.402       .  A
C1406      C3241   1.397   1_556  A
C1406      C1407   1.398       .  A
C1406      H1411   1.084       .  S
C1407      C3244   1.413       .  A
C1407      O1412   1.376       .  S
C1408      C3243   1.407       .  A
C1408      C1409   1.402   1_656  A
C1409      C1410   1.393       .  A
C1409      H1413   1.084       .  S
C1410      O1414   1.371       .  S
O1412      H1416   0.993       .  S
O1414      H1415   0.992       .  S
C1417      C3254   1.397       .  A
C1417      C1422   1.409   1_556  A
C1418      C3253   1.398   1_556  A
C1418      C1419   1.393       .  A
C1418      H1423   1.083       .  S
C1419      C3256   1.406   1_556  A
C1419      O1424   1.372       .  S
C1420      C3255   1.403   1_554  A
C1420      C1421   1.395   1_655  A
C1420      C2886   1.443       .  S
C1421      C1422   1.391   1_455  A
C1421      H1425   1.084       .  S
C1422      O1426   1.374   1_655  S
O1424      H1428   0.992       .  S
O1426      H1427   0.991       .  S
C1429      C1430   1.410       .  A
C1429      C1434   1.409       .  A
C1430      C1431   1.410       .  A
C1430      H1435   1.081       .  S
C1431      C1432   1.412       .  A
C1431      O1436   1.372       .  S
C1432      C1433   1.407       .  A
C1433      C1434   1.404       .  A
C1433      H1437   1.077       .  S
C1434      O1438   1.378       .  S
O1436      H3276   0.993       .  S
O1438      H1439   0.993       .  S
H1440      O3272   0.993       .  S
C1441      C1442   1.395       .  A
C1441      C1446   1.408       .  A
C1442      C1443   1.395       .  A
C1442      H3283   1.082   1_455  S
C1443      C1444   1.424       .  A
C1443      O1448   1.371       .  S
C1444      C1445   1.417       .  A
C1445      C1446   1.417       .  A
C1445      H1449   1.078       .  S
C1446      O1450   1.371       .  S
H1447      C3278   1.080       .  S
O1448      H3288   0.992   1_455  S
O1450      H1451   0.991       .  S
H1452      O3284   0.992       .  S
C1453      C1454   1.399       .  A
C1453      C1458   1.407   1_554  A
C1454      C1455   1.394       .  A
C1454      H1459   1.083       .  S
C1455      C1456   1.406       .  A
C1455      O1460   1.373       .  S
C1456      C1457   1.397   1_554  A
C1457      C1458   1.391       .  A
C1457      H1461   1.083       .  S
C1458      O1462   1.372       .  S
O1460      H1464   0.992       .  S
O1462      H1463   0.991       .  S
C1465      C1466   1.402       .  A
C1465      C1470   1.405       .  A
C1466      C1467   1.396       .  A
C1466      H1471   1.084       .  S
C1467      C1468   1.406       .  A
C1467      O1472   1.373       .  S
C1468      C1469   1.399       .  A
C1469      C1470   1.386       .  A
C1469      H1473   1.084   1_556  S
C1470      O1474   1.372   1_556  S
O1472      H1476   0.991       .  S
O1474      H1475   0.993       .  S
C1477      C1478   1.406       .  A
C1477      C1482   1.405       .  A
C1478      C1479   1.417       .  A
C1478      H1483   1.083       .  S
C1479      C1480   1.421       .  A
C1479      O1484   1.368       .  S
C1480      C1481   1.416       .  A
C1481      C1482   1.395       .  A
C1481      H1485   1.080       .  S
C1482      O1486   1.372       .  S
O1484      H1488   0.990       .  S
O1486      H1487   0.992       .  S
C1489      C1490   1.413       .  A
C1489      C1494   1.409       .  A
C1490      C1491   1.406       .  A
C1490      H1495   1.082   1_556  S
C1491      C1492   1.403       .  A
C1491      O1496   1.372       .  S
C1492      C1493   1.406       .  A
C1493      C1494   1.400       .  A
C1493      H1497   1.085       .  S
C1494      O1498   1.371       .  S
O1496      H1500   0.992       .  S
O1498      H1499   0.993       .  S
C1501      C1506   1.402   1_554  A
C1502      C1503   1.386       .  A
C1502      H1507   1.083       .  S
C1503      O1508   1.371       .  S
C1504      C1505   1.402   1_554  A
C1505      C1506   1.392       .  A
C1505      H1509   1.084       .  S
C1506      O1510   1.373       .  S
O1508      H1512   0.992       .  S
O1510      H1511   0.991       .  S
C1513      C1518   1.409       .  A
C1514      C1515   1.386       .  A
C1514      H1519   1.084       .  S
C1515      O1520   1.372       .  S
C1516      C1517   1.394       .  A
C1517      C1518   1.393       .  A
C1517      H1521   1.078       .  S
C1518      O1522   1.374       .  S
O1520      H1524   0.991       .  S
O1522      H1523   0.991       .  S
C1525      C1526   1.398       .  A
C1525      C1530   1.406       .  A
C1526      C1527   1.399       .  A
C1526      H1531   1.080       .  S
C1527      C1528   1.421       .  A
C1527      O1532   1.371       .  S
C1528      C1529   1.410       .  A
C1529      C1530   1.406       .  A
C1529      H1533   1.063       .  S
C1530      O1534   1.371       .  S
O1532      H1536   0.992       .  S
O1534      H1535   0.992       .  S
C1537      C1538   1.408       .  A
C1537      C1542   1.406       .  A
C1538      C1539   1.407       .  A
C1538      H1543   1.082       .  S
C1539      C1540   1.406       .  A
C1539      O1544   1.368       .  S
C1540      C1541   1.405       .  A
C1541      C1542   1.401       .  A
C1541      H1545   1.084       .  S
C1542      O1546   1.371       .  S
O1544      H1548   0.992       .  S
O1546      H1547   0.993       .  S
C1549      C1550   1.403       .  A
C1549      C1554   1.421       .  A
C1550      C1551   1.402       .  A
C1550      H1555   1.068       .  S
C1551      C1552   1.411       .  A
C1551      O1556   1.372       .  S
C1552      C1553   1.405       .  A
C1553      C1554   1.416       .  A
C1553      H1557   1.083       .  S
C1554      O1558   1.371   1_554  S
O1556      H1560   0.991       .  S
O1558      H1559   0.993       .  S
C1561      C1562   1.413       .  A
C1561      C1566   1.422       .  A
C1562      C1563   1.412       .  A
C1562      H1567   1.079       .  S
C1563      C1564   1.411       .  A
C1563      O1568   1.370       .  S
C1564      C1565   1.397       .  A
C1565      C1566   1.393       .  A
C1565      H1569   1.083       .  S
C1566      O1570   1.374       .  S
O1568      H1572   0.990   1_554  S
O1570      H1571   0.992       .  S
C1573      C1578   1.412       .  A
C1574      C1575   1.408       .  A
C1574      H1579   1.083       .  S
C1575      C1576   1.409       .  A
C1575      O1580   1.370       .  S
C1576      C1577   1.399       .  A
C1577      H1581   1.083       .  S
C1578      O1582   1.371       .  S
O1580      H1584   0.991       .  S
O1582      H1583   0.994       .  S
C1585      C1586   1.397       .  A
C1585      C1590   1.410       .  A
C1586      C1587   1.392       .  A
C1586      H1591   1.084       .  S
C1587      C1588   1.408       .  A
C1587      O1592   1.369       .  S
C1588      C1589   1.401       .  A
C1589      C1590   1.403       .  A
C1589      H1593   1.084       .  S
C1590      O1594   1.374       .  S
O1592      H1596   0.992       .  S
O1594      H1595   0.992       .  S
C1597      C1598   1.409       .  A
C1597      C1602   1.424       .  A
C1598      C1599   1.415       .  A
C1598      H1603   1.081       .  S
C1599      C1600   1.413       .  A
C1599      O1604   1.370       .  S
C1600      C1601   1.399       .  A
C1601      C1602   1.406       .  A
C1601      H1605   1.081       .  S
C1602      O1606   1.377       .  S
O1604      H1608   0.992       .  S
O1606      H1607   0.993       .  S
C1609      C1610   1.407       .  A
C1609      C1614   1.413       .  A
C1610      C1611   1.404       .  A
C1610      H1615   1.077       .  S
C1611      C1612   1.410       .  A
C1611      O1616   1.369       .  S
C1612      C1613   1.402       .  A
C1613      C1614   1.403       .  A
C1613      H1617   1.077       .  S
C1614      O1618   1.368       .  S
O1616      H1620   0.992       .  S
O1618      H1619   0.993       .  S
C1621      C1622   1.416       .  A
C1621      C1626   1.408       .  A
C1622      C1623   1.416       .  A
C1622      H1627   1.083       .  S
C1623      C1624   1.408       .  A
C1623      O1628   1.373       .  S
C1624      C1625   1.410       .  A
C1625      C1626   1.405       .  A
C1625      H1629   1.083       .  S
C1626      O1630   1.369       .  S
O1628      H1632   0.993       .  S
O1630      H1631   0.992       .  S
C1633      C1634   1.405   1_565  A
C1633      C1638   1.407       .  A
C1634      H1639   1.080       .  S
C1635      C1636   1.418       .  A
C1635      O1640   1.372       .  S
C1636      C1637   1.396       .  A
C1637      H1641   1.073       .  S
C1638      O1642   1.371       .  S
C1645      C1646   1.400       .  A
C1645      C1650   1.408       .  A
C1646      C3483   1.389   1_455  A
C1646      H1651   1.081       .  S
C1647      C3482   1.389       .  A
C1647      C1648   1.404       .  A
C1647      O1652   1.373       .  S
C1648      C1649   1.402       .  A
C1649      C3486   1.407       .  A
C1649      H1653   1.083       .  S
C1650      C3485   1.402   1_455  A
C1650      O1654   1.371       .  S
O1652      H1656   0.992       .  S
O1654      H3491   0.992       .  S
H1655      O3490   0.990       .  S
C1657      C1658   1.413       .  A
C1657      C1662   1.407       .  A
C1658      C1659   1.416       .  A
C1658      H1663   1.083       .  S
C1659      C1660   1.409       .  A
C1659      O3500   1.373       .  S
C1660      C1661   1.416       .  A
C1661      C1662   1.413       .  A
C1661      H1665   1.082       .  S
C1662      O1666   1.371       .  S
O1664      C3495   1.373       .  S
O1664      H1668   0.992       .  S
O1666      H1667   0.992       .  S
C1669      C1670   1.419       .  A
C1669      C1674   1.421       .  A
C1670      C1671   1.430       .  A
C1670      H1675   1.080       .  S
C1671      C1672   1.420       .  A
C1671      O1676   1.371       .  S
C1672      C1673   1.392       .  A
C1673      C1674   1.386       .  A
C1673      H1677   1.078       .  S
O1676      H1680   0.992       .  S
O1678      H1679   0.990       .  S
C1681      C3518   1.392       .  A
C1681      C1686   1.410       .  A
C1682      C3517   1.390       .  A
C1682      C1683   1.388       .  A
C1682      H1687   1.083       .  S
C1683      C1684   1.427       .  A
C1683      O1688   1.371       .  S
C1684      C3521   1.417       .  A
C1685      C3520   1.412       .  A
C1685      C1686   1.415   1_655  A
C1685      H1689   1.077       .  S
C1686      O1690   1.370       .  S
O1688      H1692   0.993       .  S
O1690      H1691   0.992       .  S
C1693      C1694   1.414       .  A
C1693      C1698   1.410       .  A
C1694      C1695   1.411       .  A
C1694      H1699   1.083       .  S
C1695      C1696   1.411       .  A
C1695      O1700   1.377       .  S
C1696      C1697   1.398       .  A
C1697      C1698   1.404       .  A
C1697      H1701   1.078   1_554  S
C1698      O1702   1.379       .  S
O1700      H1704   0.993       .  S
O1702      H1703   0.992       .  S
C1705      C1706   1.414       .  A
C1705      C1710   1.419       .  A
C1706      C1707   1.408       .  A
C1706      H1711   1.065       .  S
C1707      C1708   1.403       .  A
C1707      O1712   1.371       .  S
C1708      C1709   1.399       .  A
C1709      C1710   1.397       .  A
C1710      O1714   1.370       .  S
O1712      H1716   0.991       .  S
C1717      C1718   1.408       .  A
C1717      C1722   1.390       .  A
C1718      H1723   1.083       .  S
C1719      C1720   1.423       .  A
C1719      O1724   1.368       .  S
C1720      C1721   1.424       .  A
C1721      H1725   1.071       .  S
C1722      O1726   1.374       .  S
C1729      C1730   1.401       .  A
C1729      C1734   1.406       .  A
C1730      C1731   1.409       .  A
C1730      H1735   1.083       .  S
C1731      C1732   1.421       .  A
C1731      O1736   1.368       .  S
C1732      C1733   1.406       .  A
C1733      C1734   1.401       .  A
C1733      H1737   1.064       .  S
C1734      O1738   1.372   1_554  S
O1736      H1740   0.993       .  S
O1738      H1739   0.992       .  S
C1741      C1742   1.410       .  A
C1741      C1746   1.411       .  A
C1742      C1743   1.406       .  A
C1742      H1747   1.079       .  S
C1743      C1744   1.412       .  A
C1743      O1748   1.369       .  S
C1744      C1745   1.403       .  A
C1745      C1746   1.400       .  A
C1745      H1749   1.078       .  S
C1746      O1750   1.369   1_554  S
O1748      H1752   0.991       .  S
O1750      H1751   0.991       .  S
C1753      C1754   1.399       .  A
C1754      C1755   1.405       .  A
C1754      H1759   1.083       .  S
C1755      O1760   1.374       .  S
C1756      C1757   1.401       .  A
C1757      C1758   1.406       .  A
C1757      H1761   1.079       .  S
C1758      O1762   1.372       .  S
O1760      H1764   0.991       .  S
O1762      H1763   0.991       .  S
C1765      C1766   1.402       .  A
C1765      C1770   1.396       .  A
C1766      C1767   1.399       .  A
C1766      H1771   1.078       .  S
C1767      C1768   1.420       .  A
C1767      O1772   1.369       .  S
C1768      C1769   1.399       .  A
C1769      C1770   1.400       .  A
C1769      H1773   1.081       .  S
C1770      O1774   1.364       .  S
O1772      H1776   0.992       .  S
O1774      H1775   0.994       .  S
C1777      C1778   1.399       .  A
C1777      C1782   1.403       .  A
C1778      C3615   1.389       .  A
C1778      H1783   1.084       .  S
C1779      C3614   1.394   1_455  A
C1779      C1780   1.400       .  A
C1779      O1784   1.372       .  S
C1780      C1781   1.403       .  A
C1781      C3618   1.388   1_455  A
C1781      H1785   1.081       .  S
C1782      C3617   1.381       .  A
C1782      O1786   1.375       .  S
O1784      H1788   0.993       .  S
O1786      H1787   0.992       .  S
C1789      C1790   1.406       .  A
C1789      C1794   1.400       .  A
C1790      C1791   1.415       .  A
C1790      H1795   1.082       .  S
C1791      C1792   1.421       .  A
C1791      O1796   1.367       .  S
C1792      C1793   1.424       .  A
C1793      C1794   1.398       .  A
C1793      H3633   1.077       .  S
C1794      O1798   1.371       .  S
O1796      H1800   0.991       .  S
H1797      C3629   1.076       .  S
O1798      H3635   0.991       .  S
H1799      O3634   0.993       .  S
C1801      C1802   1.426       .  A
C1801      C1806   1.426       .  A
C1802      C1803   1.394       .  A
C1802      H1807   1.072       .  S
C1803      C1804   1.396       .  A
C1803      O1808   1.373       .  S
C1804      C1805   1.410       .  A
C1805      C1806   1.416       .  A
C1805      H1809   1.078       .  S
C1806      O1810   1.367       .  S
O1808      H1812   0.992       .  S
O1810      H1811   0.992       .  S
C1813      C1814   1.406       .  A
C1813      C1818   1.402       .  A
C1814      C3651   1.416   1_455  A
C1814      H1819   1.080       .  S
C1815      C3650   1.418       .  A
C1815      C1816   1.413       .  A
C1815      O1820   1.374       .  S
C1816      C1817   1.413       .  A
C1817      C3654   1.400       .  A
C1817      H1821   1.085       .  S
C1818      C3653   1.404       .  A
C1818      O1822   1.372       .  S
O1820      H1824   0.992       .  S
O1822      H1823   0.994       .  S
C1825      C1826   1.408       .  A
C1825      C1830   1.418       .  A
C1826      C1827   1.412       .  A
C1826      H1831   1.081       .  S
C1827      C1828   1.414       .  A
C1827      O1832   1.366       .  S
C1828      C1829   1.401       .  A
C1829      C1830   1.406       .  A
C1829      H1833   1.076       .  S
C1830      O1834   1.366       .  S
O1832      H1836   0.992       .  S
O1834      H1835   0.993       .  S
C1837      C1838   1.457       .  A
C1837      C1842   1.451       .  A
C1837      C2683   1.528       .  S
C1838      C1839   1.419       .  A
C1838      C2743   1.523       .  S
C1839      C1840   1.422       .  A
C1839      C2731   1.520       .  S
C1840      C1841   1.420       .  A
C1840      C2698   1.461       .  S
C1841      C1842   1.412       .  A
C1841      C2707   1.516       .  S
C1842      C2722   1.517       .  S
C1843      C1844   1.426       .  A
C1843      C1848   1.420       .  A
C1843      C2746   1.511       .  S
C1844      C1845   1.415       .  A
C1844      C2674   1.510       .  S
C1845      C1846   1.416       .  A
C1845      H1850   1.084       .  S
C1846      C1847   1.424       .  A
C1846      C2662   1.499       .  S
C1847      C1848   1.411       .  A
C1847      C2650   1.517       .  S
C1848      H1849   1.078       .  S
C1851      C1852   1.445       .  A
C1851      C1856   1.420       .  A
C1851      C2734   1.514       .  S
C1852      C1853   1.421       .  A
C1852      C2638   1.547       .  S
C1853      C1854   1.406       .  A
C1853      H1858   1.072       .  S
C1854      C1855   1.415       .  A
C1854      C2623   1.528       .  S
C1855      C1856   1.412       .  A
C1855      C2611   1.499       .  S
C1856      H1857   1.083       .  S
C1859      C1860   1.424       .  A
C1859      C1864   1.447       .  A
C1859      C2551   1.500       .  S
C1860      C1861   1.407       .  A
C1860      C2671   1.513       .  S
C1861      C1862   1.427       .  A
C1861      C2599   1.490       .  S
C1862      C1863   1.429       .  A
C1862      C2563   1.492       .  S
C1863      C1864   1.431       .  A
C1863      C2575   1.523       .  S
C1864      C2590   1.513       .  S
C1865      C1866   1.427       .  A
C1865      C1870   1.429       .  A
C1865      C2503   1.485       .  S
C1866      C1867   1.422       .  A
C1866      C2539   1.525       .  S
C1867      C1868   1.433       .  A
C1867      C2635   1.495       .  S
C1868      C1869   1.427       .  A
C1868      C2491   1.493       .  S
C1869      C1870   1.422       .  A
C1869      C2518   1.518       .  S
C1870      C2530   1.501       .  S
C1871      C1872   1.432       .  A
C1871      C1876   1.411       .  A
C1871      C2542   1.505       .  S
C1872      C1873   1.417       .  A
C1872      C2602   1.538       .  S
C1873      C1874   1.412       .  A
C1873      H1878   1.077       .  S
C1874      C1875   1.414       .  A
C1874      C2470   1.503       .  S
C1875      C1876   1.411       .  A
C1875      C2479   1.514       .  S
C1876      H1877   1.078       .  S
C1879      C1880   1.425   1_566  A
C1879      C2802   1.416       .  A
C1879      C2431   1.464       .  S
C1880      C1881   1.405       .  A
C1880      C2659   1.510       .  S
C1881      C1882   1.421       .  A
C1881      C2626   1.496       .  S
C1882      C2801   1.422   1_544  A
C1882      C2419   1.468       .  S
C1883      C2800   1.421       .  A
C1883      C1884   1.411       .  A
C1883      C2455   1.502       .  S
C1884      C2797   1.422       .  A
C1884      C2443   1.495       .  S
C1885      C1886   1.427       .  A
C1885      C1890   1.424   1_554  A
C1885      C2374   1.475       .  S
C1886      C1887   1.410       .  A
C1886      C2647   1.514       .  S
C1887      C1888   1.432   1_554  A
C1887      C2482   1.506       .  S
C1888      C1889   1.423       .  A
C1888      C2386   1.473   1_556  S
C1889      C1890   1.412       .  A
C1889      C2395   1.518       .  S
C1890      C2407   1.495       .  S
C1891      C1896   1.430       .  A
C1891      C2335   1.468   1_556  S
C1892      C1893   1.415       .  A
C1892      C2467   1.512       .  S
C1893      C2614   1.499       .  S
C1894      C1895   1.425       .  A
C1894      C2326   1.482       .  S
C1895      C1896   1.413       .  A
C1895      C2359   1.505       .  S
C1896      C2350   1.511       .  S
C1897      C1898   1.434       .  A
C1897      C1902   1.428       .  A
C1897      C2254   1.490       .  S
C1898      C1899   1.415       .  A
C1898      C2311   1.509       .  S
C1899      C1900   1.423       .  A
C1899      C2299   1.506       .  S
C1900      C1901   1.429       .  A
C1900      C2263   1.473       .  S
C1901      C1902   1.410       .  A
C1901      C2275   1.508       .  S
C1902      C2287   1.510       .  S
C1903      C1904   1.417       .  A
C1903      C1908   1.408       .  A
C1903      C2410   1.489       .  S
C1904      C1905   1.410       .  A
C1904      C2362   1.520       .  S
C1905      C1906   1.410       .  A
C1905      H1910   1.083       .  S
C1906      C1907   1.422       .  A
C1906      C2242   1.490       .  S
C1907      C1908   1.411       .  A
C1907      C2290   1.523       .  S
C1908      H1909   1.082       .  S
C1911      C1912   1.424       .  A
C1911      C1916   1.410       .  A
C1911      C2347   1.494       .  S
C1912      C1913   1.413       .  A
C1912      C2446   1.523       .  S
C1913      C1914   1.413       .  A
C1913      H1918   1.084       .  S
C1914      C1915   1.427       .  A
C1914      C2278   1.490       .  S
C1915      C1916   1.410       .  A
C1915      C2230   1.528       .  S
C1916      H1917   1.081       .  S
C1919      C1920   1.426       .  A
C1919      C1924   1.434       .  A
C1919      C2170   1.469       .  S
C1920      C1921   1.405       .  A
C1920      C2194   1.509       .  S
C1921      C1922   1.420       .  A
C1921      C2239   1.504       .  S
C1922      C1923   1.424       .  A
C1922      C2179   1.461       .  S
C1923      C1924   1.419       .  A
C1923      C2218   1.514       .  S
C1924      C2206   1.516       .  S
C1925      C1926   1.422       .  A
C1925      C1930   1.432       .  A
C1925      C2107   1.476       .  S
C1926      C1927   1.396       .  A
C1926      C2227   1.494       .  S
C1927      C1928   1.414       .  A
C1927      C2131   1.507       .  S
C1928      C1929   1.419       .  A
C1928      C2119   1.448       .  S
C1929      C1930   1.415       .  A
C1929      C2146   1.512       .  S
C1930      C2155   1.499       .  S
C1931      C1932   1.423       .  A
C1931      C1936   1.411       .  A
C1931      C2458   1.494       .  S
C1932      C1933   1.416       .  A
C1932      C2398   1.530       .  S
C1933      C1934   1.417       .  A
C1933      H1938   1.083       .  S
C1934      C1935   1.425       .  A
C1934      C2134   1.487       .  S
C1935      C1936   1.413       .  A
C1935      C2191   1.540       .  S
C1936      H1937   1.083       .  S
C1939      C1940   1.442       .  A
C1939      C1944   1.414       .  A
C1939      C2578   1.515       .  S
C1940      C1941   1.428       .  A
C1940      C2710   1.545       .  S
C1941      H1946   1.078       .  S
C1942      C1943   1.420       .  A
C1942      C2215   1.508       .  S
C1943      C2158   1.516       .  S
C1944      H1945   1.085       .  S
C1947      C1948   1.429       .  A
C1947      C1952   1.428       .  A
C1947      C2527   1.509       .  S
C1948      C1949   1.404       .  A
C1948      C2719   1.526       .  S
C1949      C1950   1.408       .  A
C1949      H1954   1.077       .  S
C1950      C1951   1.425       .  A
C1950      C2314   1.511       .  S
C1951      C1952   1.421       .  A
C1951      C2143   1.522       .  S
C1952      H1953   1.081       .  S
C1955      C1956   1.430       .  A
C1955      C2878   1.417       .  A
C1955      C2515   1.525       .  S
C1956      C2875   1.423       .  A
C1956      C2587   1.524       .  S
C1957      C2874   1.424   1_545  A
C1957      C1958   1.422       .  A
C1957      H1962   1.081   1_545  S
C1958      C1959   1.436       .  A
C1958      C2302   1.552       .  S
C1959      C1960   1.419       .  A
C1959      C2203   1.507       .  S
C1960      C2873   1.417   1_545  A
C1960      H1961   1.082       .  S
O1963      C1998   1.235   1_554  S
O1963     Mg2883   2.127   1_545  S
O1963     Mg1971   2.133       .  S
C1964      H2003   1.081       .  S
C1964      O1977   1.235       .  S
C1964      O2001   1.271       .  A
Mg1965     O2881   2.127       .  S
Mg1965     O1994   2.119       .  S
Mg1965     O2009   2.242       .  S
Mg1965     O2005   2.238       .  S
Mg1965     O1976   2.311   1_554  S
O1966      C1987   1.235       .  S
O1966     Mg2008   2.127   1_556  S
O1966     Mg1991   2.134       .  S
O1967     Mg1991   2.294       .  S
C1968      O1970   1.266       .  A
O1969      C2915   1.270       .  A
O1969     Mg1971   2.312   1_565  S
O1970     Mg2002   2.228       .  S
Mg1971     O1985   2.227       .  S
Mg1971     O1973   2.284       .  S
C1972      C2434   1.442       .  S
C1972      O2928   1.259       .  A
C1972      O1978   1.271   1_565  A
H1974      C1987   1.081       .  S
C1975      H2000   1.081       .  S
C1975      O1989   1.236       .  S
O1976      C1999   1.272       .  A
O1977     Mg1991   2.127   1_554  S
O1978     Mg2008   2.290       .  S
C1979      C2371   1.449       .  S
C1979      O1992   1.267       .  A
C1979      O1984   1.259       .  A
C1980      C2323   1.456       .  S
C1980      O2007   1.265   1_556  A
Mg1981     O1989   2.144   1_556  S
Mg1981     O1982   2.262   1_556  S
Mg1981     O1983   2.298       .  S
Mg1981     O2010   2.212       .  S
O1983      C2905   1.268       .  A
O1984     Mg1991   2.237   1_554  S
O1985      C2004   1.265       .  A
O1986      C2006   1.263       .  A
O1986     Mg2002   2.238       .  S
C1987      O2901   1.270   1_545  A
O1988      C1999   1.237       .  S
O1988     Mg2002   2.141   1_556  S
O1989     Mg2926   2.113       .  S
O1990     Mg2002   2.272       .  S
Mg1991     O2007   2.230   1_556  S
O1992     Mg2008   2.267       .  S
H1993      C1998   1.081       .  S
O1994      C1997   1.238       .  S
O1994     Mg2002   2.120       .  S
H1995      C1997   1.080       .  S
H1996      C1999   1.081       .  S
C1997      O2887   1.274       .  A
O2001     Mg2008   2.313       .  S
C2004      C2422   1.456       .  S
C2004      O2927   1.263   1_545  A
O2005      C2006   1.266       .  A
C2006      C2383   1.466       .  S
Mg2008     O2907   2.134   1_545  S
O2009      C2922   1.261       .  A
O2010      C2890   1.265       .  A
O2011      C2046   1.238       .  S
O2011     Mg2013   2.171       .  S
O2011     Mg2019   2.155       .  S
C2012      H2051   1.081       .  S
C2012      O2025   1.234       .  S
C2012      O2049   1.269       .  A
Mg2013     O2042   2.208       .  S
Mg2013     O2057   2.363       .  S
Mg2013     O2053   2.341       .  S
Mg2013     O2024   2.288       .  S
O2014      C2035   1.235       .  S
O2014     Mg2056   2.146       .  S
O2014     Mg2039   2.126       .  S
O2015      C2046   1.274       .  A
O2015     Mg2039   2.320       .  S
C2016      C2494   1.482       .  S
C2016      O2018   1.271       .  A
C2016      O2030   1.268       .  A
O2017      C2045   1.269       .  A
O2017     Mg2019   2.294       .  S
O2018     Mg2050   2.271       .  S
Mg2019     O2025   2.111       .  S
Mg2019     O2033   2.131       .  S
Mg2019     O2021   2.302       .  S
C2020      C2695   1.446       .  S
C2020      O2058   1.264       .  A
C2020      O2026   1.266       .  A
O2021      C2028   1.266       .  A
H2022      C2035   1.082       .  S
C2023      H2048   1.081       .  S
C2023      O2037   1.237       .  S
C2023      O2038   1.272       .  A
O2024      C2047   1.264       .  A
O2025     Mg2039   2.120       .  S
O2026     Mg2056   2.252       .  S
C2027      C2566   1.461       .  S
C2027      O2040   1.266       .  A
C2027      O2032   1.267       .  A
C2028      C2506   1.470       .  S
C2028      O2055   1.265       .  A
Mg2029     O2036   2.120       .  S
Mg2029     O2037   2.151       .  S
Mg2029     O2030   2.298       .  S
Mg2029     O2031   2.302       .  S
Mg2029     O2058   2.196       .  S
O2031      C2035   1.270       .  A
O2032     Mg2039   2.293       .  S
O2033      C2052   1.255       .  A
O2034      C2054   1.266       .  A
O2034     Mg2050   2.233       .  S
O2036      C2047   1.231       .  S
O2036     Mg2050   2.121       .  S
O2037     Mg2056   2.143       .  S
O2038     Mg2050   2.309       .  S
Mg2039     O2055   2.238       .  S
O2040     Mg2056   2.240       .  S
H2041      C2046   1.081       .  S
O2042      C2045   1.236       .  S
O2042     Mg2050   2.155       .  S
H2043      C2045   1.082       .  S
H2044      C2047   1.081       .  S
O2049     Mg2056   2.304       .  S
C2052      C2686   1.477       .  S
C2052      O2057   1.284       .  A
O2053      C2054   1.284       .  A
C2054      C2554   1.490       .  S
O2059      C2094   1.235       .  S
O2059     Mg2061   2.113       .  S
O2059     Mg2067   2.132       .  S
C2060      H2099   1.081       .  S
C2060      O2073   1.235       .  S
C2060      O2097   1.270       .  A
Mg2061     O2090   2.147       .  S
Mg2061     O2105   2.243       .  S
Mg2061     O2101   2.202       .  S
Mg2061     O2072   2.291       .  S
O2062      C2083   1.236       .  S
O2062     Mg2104   2.130       .  S
O2062     Mg2087   2.130       .  S
O2063      C2094   1.268       .  A
O2063     Mg2087   2.293       .  S
C2064      C2251   1.475       .  S
C2064      O2066   1.267       .  A
C2064      O2078   1.263       .  A
O2065      C2093   1.270       .  A
O2065     Mg2067   2.302       .  S
O2066     Mg2098   2.251       .  S
Mg2067     O2073   2.083       .  S
Mg2067     O2081   2.208       .  S
Mg2067     O2069   2.294       .  S
C2068      C2122   1.418       .  S
C2068      O2106   1.255       .  A
C2068      O2074   1.264       .  A
O2069      C2076   1.272       .  A
H2070      C2083   1.081       .  S
C2071      H2096   1.078       .  S
C2071      O2085   1.236       .  S
C2071      O2086   1.272       .  A
O2072      C2095   1.268       .  A
O2073     Mg2087   2.123       .  S
O2074     Mg2104   2.242       .  S
C2075      C2167   1.458       .  S
C2075      O2088   1.264       .  A
C2075      O2080   1.258       .  A
C2076      C2266   1.454       .  S
C2076      O2103   1.265       .  A
Mg2077     O2084   2.083       .  S
Mg2077     O2085   2.134       .  S
Mg2077     O2078   2.268       .  S
Mg2077     O2079   2.312       .  S
Mg2077     O2106   2.151       .  S
O2079      C2083   1.271       .  A
O2080     Mg2087   2.237       .  S
O2081      C2100   1.266       .  A
O2082      C2102   1.265       .  A
O2082     Mg2098   2.250       .  S
O2084      C2095   1.235       .  S
O2084     Mg2098   2.106       .  S
O2085     Mg2104   2.141       .  S
O2086     Mg2098   2.316       .  S
Mg2087     O2103   2.216       .  S
O2088     Mg2104   2.265       .  S
H2089      C2094   1.081       .  S
O2090      C2093   1.235       .  S
O2090     Mg2098   2.122       .  S
H2091      C2093   1.082       .  S
H2092      C2095   1.081       .  S
O2097     Mg2104   2.311       .  S
C2100      C2110   1.446       .  S
C2100      O2105   1.265       .  A
O2101      C2102   1.262       .  A
C2102      C2182   1.435       .  S
C2107      C2108   1.400   1_655  A
C2107      C2112   1.405       .  A
C2108      H2113   1.081       .  S
C2109      C2110   1.402       .  A
C2109      O2114   1.373       .  S
C2110      C2111   1.403       .  A
C2111      H2115   1.084       .  S
C2112      O2116   1.372       .  S
O2114      H2118   0.992       .  S
O2116      H2117   0.991       .  S
C2119      C2120   1.397       .  A
C2119      C2124   1.403       .  A
C2120      C2121   1.381       .  A
C2120      H2125   1.084       .  S
C2121      C2122   1.397       .  A
C2121      O2126   1.370       .  S
C2122      C2123   1.394       .  A
C2123      C2124   1.382       .  A
C2123      H2127   1.085       .  S
C2124      O2128   1.374       .  S
O2126      H2130   0.992       .  S
O2128      H2129   0.993       .  S
C2131      C2132   1.402       .  A
C2131      C2136   1.415       .  A
C2132      C2133   1.400       .  A
C2132      H2137   1.078       .  S
C2133      C2134   1.410       .  A
C2133      O2138   1.373       .  S
C2134      C2135   1.403       .  A
C2135      C2136   1.405       .  A
C2135      H2139   1.080       .  S
C2136      O2140   1.371       .  S
O2138      H2142   0.990       .  S
O2140      H2141   0.993       .  S
C2143      C2144   1.408       .  A
C2143      C2148   1.421       .  A
C2144      C2145   1.410       .  A
C2144      H2149   1.082       .  S
C2145      C2146   1.416       .  A
C2145      O2150   1.370       .  S
C2146      C2147   1.398       .  A
C2147      C2148   1.409       .  A
C2147      H2151   1.084       .  S
C2148      O2152   1.368       .  S
O2150      H2154   0.991       .  S
O2152      H2153   0.992       .  S
C2155      C2156   1.394       .  A
C2155      C2160   1.411       .  A
C2156      C2157   1.389       .  A
C2156      H2161   1.083       .  S
C2157      C2158   1.422       .  A
C2158      C2159   1.414       .  A
C2159      C2160   1.418       .  A
C2159      H2163   1.079       .  S
C2160      O2164   1.371       .  S
O2162      H2166   0.993       .  S
O2164      H2165   0.991       .  S
C2167      C2168   1.396       .  A
C2167      C2172   1.405       .  A
C2168      C3087   1.393       .  A
C2168      H2173   1.081       .  S
C2169      C3086   1.386   1_545  A
C2169      C2170   1.409       .  A
C2169      O2174   1.375       .  S
C2170      C3089   1.402       .  A
C2171      C3088   1.401       .  A
C2171      C2172   1.395       .  A
C2171      H2175   1.084       .  S
C2172      O2176   1.371       .  S
O2174      H2178   0.993       .  S
O2176      H2177   0.990       .  S
C2179      C2180   1.397       .  A
C2180      H2185   1.084       .  S
C2181      C2182   1.403       .  A
C2181      O2186   1.374       .  S
C2182      C2183   1.396       .  A
C2183      C2184   1.394       .  A
C2183      H2187   1.084       .  S
C2184      O2188   1.374       .  S
O2188      H2189   0.992       .  S
C2191      C2192   1.419       .  A
C2191      C2196   1.426       .  A
C2192      C3111   1.399       .  A
C2192      H2197   1.079       .  S
C2193      C3110   1.399       .  A
C2193      C2194   1.400       .  A
C2193      O2198   1.374       .  S
C2194      C2195   1.406       .  A
C2195      C3114   1.418   1_545  A
C2195      H2199   1.083       .  S
C2196      C3113   1.418       .  A
C2196      O2200   1.365       .  S
O2198      H2202   0.990       .  S
O2200      H2201   0.992       .  S
C2203      C2204   1.411       .  A
C2203      C2208   1.410       .  A
C2204      C2205   1.411       .  A
C2204      H2209   1.080       .  S
C2205      C2206   1.410       .  A
C2205      O2210   1.369       .  S
C2206      C2207   1.404       .  A
C2207      C2208   1.410       .  A
C2207      H2211   1.074       .  S
C2208      O3130   1.376       .  S
O2210      H2214   0.995       .  S
O2212      C3126   1.377       .  S
O2212      H2213   0.992       .  S
C2215      C2216   1.407       .  A
C2215      C2220   1.413       .  A
C2216      C2217   1.416       .  A
C2216      H2221   1.083       .  S
C2217      C2218   1.419       .  A
C2217      O2222   1.371       .  S
C2218      C2219   1.402       .  A
C2219      C2220   1.400       .  A
C2219      H2223   1.079       .  S
C2220      O2224   1.371       .  S
O2222      H2226   0.992       .  S
O2224      H2225   0.991       .  S
C2227      C2228   1.398       .  A
C2228      C2229   1.398   1_655  A
C2228      H2233   1.083       .  S
C2229      O2234   1.372       .  S
C2230      C2231   1.413       .  A
C2231      C2232   1.407       .  A
C2231      H2235   1.062       .  S
C2232      O2236   1.371       .  S
O2234      H2238   0.992   1_455  S
O2236      H2237   0.991       .  S
C2239      C2244   1.407       .  A
C2240      C2241   1.404       .  A
C2240      H2245   1.081       .  S
C2241      C2242   1.405       .  A
C2241      O2246   1.366       .  S
C2243      C2244   1.402   1_455  A
C2243      H2247   1.084       .  S
C2244      O2248   1.370       .  S
O2246      H2250   0.993       .  S
O2248      H2249   0.993       .  S
C2251      C2252   1.399       .  A
C2251      C2256   1.413       .  A
C2252      C2253   1.393       .  A
C2252      H2257   1.079       .  S
C2253      C2254   1.406       .  A
C2253      O2258   1.374       .  S
C2254      C2255   1.401       .  A
C2255      C2256   1.402       .  A
C2255      H2259   1.083       .  S
C2256      O2260   1.371       .  S
O2258      H2262   0.994       .  S
O2260      H2261   0.993       .  S
C2263      C3182   1.404       .  A
C2263      C2268   1.401       .  A
C2264      C3181   1.405       .  A
C2264      C2265   1.391       .  A
C2264      H2269   1.081       .  S
C2265      C2266   1.400       .  A
C2265      O2270   1.372       .  S
C2266      C2267   1.402       .  A
C2267      C3186   1.394       .  A
C2267      H2271   1.084       .  S
C2268      C3185   1.391   1_545  A
C2268      O2272   1.371       .  S
O2270      H2274   0.992       .  S
O2272      H2273   0.993       .  S
C2275      C2276   1.407       .  A
C2275      C2280   1.409       .  A
C2276      C3195   1.404   1_545  A
C2276      H2281   1.082       .  S
C2277      C3194   1.409       .  A
C2277      C2278   1.414       .  A
C2277      O2282   1.369       .  S
C2278      C2279   1.401       .  A
C2279      C3198   1.394       .  A
C2279      H2283   1.084       .  S
C2280      C3197   1.398   1_545  A
C2280      O2284   1.369       .  S
O2282      H3204   0.992       .  S
O2284      H3203   0.992       .  S
H2285      O3202   0.992       .  S
H2286      O3200   0.991       .  S
C2287      C2288   1.394       .  A
C2287      C2292   1.410       .  A
C2288      C2289   1.396       .  A
C2288      H2293   1.084       .  S
C2289      C2290   1.427       .  A
C2289      O2294   1.371       .  S
C2290      C2291   1.416       .  A
C2291      C2292   1.418       .  A
C2291      H2295   1.079       .  S
C2292      O2296   1.373       .  S
O2294      H2298   0.988       .  S
O2296      H2297   0.991       .  S
C2299      C2300   1.403       .  A
C2299      C2304   1.403       .  A
C2300      C2301   1.409       .  A
C2300      H2305   1.082       .  S
C2301      C2302   1.420       .  A
C2301      O2306   1.364       .  S
C2302      C2303   1.421       .  A
C2303      C2304   1.406       .  A
C2303      H3225   1.074       .  S
C2304      O2308   1.372       .  S
O2306      H2310   0.993       .  S
H2307      C3221   1.072       .  S
O2308      H3227   0.992       .  S
H2309      O3226   0.992       .  S
C2311      C2312   1.393       .  A
C2311      C2316   1.420       .  A
C2312      C2313   1.380       .  A
C2312      H2317   1.077       .  S
C2313      C2314   1.415       .  A
C2313      O2318   1.374       .  S
C2314      C2315   1.411       .  A
C2315      C2316   1.421       .  A
C2315      H2319   1.081       .  S
C2316      O2320   1.370       .  S
O2318      H2322   0.992       .  S
O2320      H2321   0.992       .  S
C2323      C2328   1.405   1_556  A
C2324      C2325   1.398       .  A
C2324      H2329   1.084       .  S
C2325      O2330   1.375       .  S
C2326      C2327   1.400   1_556  A
C2327      C2328   1.393       .  A
C2327      H2331   1.084       .  S
C2328      O2332   1.372       .  S
O2330      H2334   0.993       .  S
O2332      H2333   0.990       .  S
C2335      C2340   1.410       .  A
C2336      C2337   1.387       .  A
C2336      H2341   1.079       .  S
C2337      O2342   1.372       .  S
C2338      C2339   1.396       .  A
C2339      C2340   1.396       .  A
C2339      H2343   1.083       .  S
C2340      O2344   1.373       .  S
O2342      H2346   0.992       .  S
O2344      H2345   0.991       .  S
C2347      C2348   1.408       .  A
C2347      C2352   1.410       .  A
C2348      C2349   1.406       .  A
C2348      H2353   1.082       .  S
C2349      C2350   1.413       .  A
C2349      O2354   1.372       .  S
C2350      C2351   1.406       .  A
C2351      C2352   1.398       .  A
C2351      H2355   1.079       .  S
C2352      O2356   1.373       .  S
O2356      H2357   0.991       .  S
C2359      C2360   1.394       .  A
C2359      C2364   1.408       .  A
C2360      C2361   1.393       .  A
C2361      C2362   1.424       .  A
C2361      O2366   1.370       .  S
C2362      C2363   1.415       .  A
C2363      C2364   1.415       .  A
C2363      H2367   1.078       .  S
C2364      O2368   1.371       .  S
O2368      H2369   0.992       .  S
C2371      C2372   1.397       .  A
C2371      C2376   1.404   1_554  A
C2372      C2373   1.393       .  A
C2372      H2377   1.080       .  S
C2373      C2374   1.405       .  A
C2373      O2378   1.372       .  S
C2374      C2375   1.399   1_554  A
C2375      C2376   1.392       .  A
C2375      H2379   1.082       .  S
C2376      O2380   1.372       .  S
O2378      H2382   0.991       .  S
O2380      H2381   0.992       .  S
C2383      C2384   1.408   1_554  A
C2383      C2388   1.407       .  A
C2384      C2385   1.392       .  A
C2384      H2389   1.083       .  S
C2385      C2386   1.401   1_556  A
C2385      O2390   1.374       .  S
C2386      C2387   1.401       .  A
C2387      C2388   1.390       .  A
C2387      H2391   1.084       .  S
C2388      O2392   1.371       .  S
O2390      H2394   0.991       .  S
O2392      H2393   0.991       .  S
C2395      C2396   1.409       .  A
C2395      C2400   1.407       .  A
C2396      C2397   1.421       .  A
C2396      H2401   1.083       .  S
C2397      C2398   1.424       .  A
C2397      O2402   1.370       .  S
C2398      C2399   1.414       .  A
C2399      C2400   1.399       .  A
C2399      H2403   1.081       .  S
C2400      O2404   1.371       .  S
O2402      H2406   0.991       .  S
O2404      H2405   0.991       .  S
C2407      C2408   1.410       .  A
C2407      C2412   1.403       .  A
C2408      C2409   1.406       .  A
C2408      H2413   1.083   1_556  S
C2409      C2410   1.405       .  A
C2409      O2414   1.371       .  S
C2410      C2411   1.407       .  A
C2411      C2412   1.400       .  A
C2411      H2415   1.080       .  S
C2412      O2416   1.370       .  S
O2414      H2418   0.993       .  S
O2416      H2417   0.992       .  S
C2419      C3338   1.401   1_545  A
C2419      C2424   1.402   1_554  A
C2420      C3337   1.402       .  A
C2420      C2421   1.390       .  A
C2420      H2425   1.082       .  S
C2421      C3340   1.402       .  A
C2421      O2426   1.368       .  S
C2422      C3339   1.402   1_545  A
C2422      C2423   1.403       .  A
C2423      C2424   1.394   1_554  A
C2423      H2427   1.084   1_554  S
C2424      O2428   1.373       .  S
O2426      H2430   0.990       .  S
O2428      H2429   0.991       .  S
C2431      C3350   1.398   1_556  A
C2431      C2436   1.404   1_565  A
C2432      C3349   1.397   1_554  A
C2432      C2433   1.389       .  A
C2432      H2437   1.084       .  S
C2433      C3352   1.406   1_554  A
C2433      O2438   1.371       .  S
C2434      C3351   1.403       .  A
C2434      C2435   1.396   1_564  A
C2435      C2436   1.392       .  A
C2435      H2439   1.082       .  S
C2436      O2440   1.373       .  S
O2438      H2442   0.994       .  S
O2440      H2441   0.992       .  S
C2443      C2444   1.398       .  A
C2443      C2448   1.405       .  A
C2444      C2445   1.399       .  A
C2444      H2449   1.082       .  S
C2445      C2446   1.421       .  A
C2445      O2450   1.370       .  S
C2446      C2447   1.411       .  A
C2447      C2448   1.407       .  A
C2447      H2451   1.066       .  S
C2448      O2452   1.371       .  S
O2450      H2454   0.991       .  S
O2452      H2453   0.992       .  S
C2455      C2456   1.410       .  A
C2455      C2460   1.403       .  A
C2456      C2457   1.411       .  A
C2456      H2461   1.080       .  S
C2457      C2458   1.405       .  A
C2457      O2462   1.370       .  S
C2458      C2459   1.409       .  A
C2459      C2460   1.400       .  A
C2459      H2463   1.083       .  S
C2460      O2464   1.371       .  S
O2462      H2466   0.992       .  S
O2464      H2465   0.990       .  S
C2467      C2468   1.401       .  A
C2467      C2472   1.417       .  A
C2468      C2469   1.399       .  A
C2468      H2473   1.078       .  S
C2469      C2470   1.411       .  A
C2469      O2474   1.371       .  S
C2470      C2471   1.406       .  A
C2471      C2472   1.415       .  A
C2471      H2475   1.083       .  S
C2472      O2476   1.371   1_554  S
O2474      H2478   0.992       .  S
O2476      H2477   0.992       .  S
C2479      C2480   1.412       .  A
C2479      C2484   1.420       .  A
C2480      C2481   1.414       .  A
C2480      H2485   1.079       .  S
C2481      C2482   1.412       .  A
C2481      O2486   1.370       .  S
C2482      C2483   1.398       .  A
C2483      C2484   1.395       .  A
C2483      H2487   1.083       .  S
C2484      O2488   1.374       .  S
O2486      H2490   0.993       .  S
O2488      H2489   0.988       .  S
C2491      C3410   1.404       .  A
C2491      C2496   1.407       .  A
C2492      C3409   1.408       .  A
C2492      C2493   1.410   1_565  A
C2492      H2497   1.083       .  S
C2493      C2494   1.410       .  A
C2493      O2498   1.369       .  S
C2494      C2495   1.397       .  A
C2495      C3414   1.395   1_545  A
C2495      H2499   1.083       .  S
C2496      C3413   1.399       .  A
C2496      O2500   1.373       .  S
O2498      H2502   0.991       .  S
O2500      H2501   0.992       .  S
C2503      C2504   1.398       .  A
C2503      C2508   1.409       .  A
C2504      C2505   1.391       .  A
C2504      H2509   1.084       .  S
C2505      C2506   1.409       .  A
C2505      O2510   1.371       .  S
C2506      C2507   1.401       .  A
C2507      C2508   1.406       .  A
C2507      H2511   1.083       .  S
C2508      O2512   1.374       .  S
O2510      H2514   0.991       .  S
O2512      H2513   0.991       .  S
C2515      C2516   1.411       .  A
C2515      C2520   1.422       .  A
C2516      C2517   1.418       .  A
C2516      H2521   1.081       .  S
C2517      C2518   1.414       .  A
C2517      O2522   1.370       .  S
C2518      C2519   1.401       .  A
C2519      C2520   1.407       .  A
C2519      H2523   1.080       .  S
C2520      O2524   1.376       .  S
O2522      H2526   0.991       .  S
O2524      H2525   0.994       .  S
C2527      C2528   1.408       .  A
C2527      C2532   1.415       .  A
C2528      C2529   1.408       .  A
C2528      H2533   1.078       .  S
C2529      C2530   1.412       .  A
C2529      O2534   1.370       .  S
C2530      C2531   1.399       .  A
C2531      C2532   1.397       .  A
C2531      H2535   1.077       .  S
C2532      O2536   1.370       .  S
O2534      H2538   0.992       .  S
O2536      H2537   0.993       .  S
C2539      C2540   1.414       .  A
C2539      C2544   1.411       .  A
C2540      C2541   1.414       .  A
C2540      H2545   1.083       .  S
C2541      C2542   1.408       .  A
C2541      O2546   1.372       .  S
C2542      C2543   1.409       .  A
C2543      C2544   1.410       .  A
C2543      H2547   1.084       .  S
C2544      O2548   1.368       .  S
O2546      H2550   0.991       .  S
O2548      H2549   0.991       .  S
C2551      C2552   1.404       .  A
C2551      C2556   1.407       .  A
C2552      C3471   1.392       .  A
C2552      H2557   1.080       .  S
C2553      C3470   1.400       .  A
C2553      C2554   1.418   1_565  A
C2553      O2558   1.371   1_565  S
C2554      C2555   1.397       .  A
C2555      C3474   1.403   1_545  A
C2555      H2559   1.072       .  S
C2556      C3473   1.407       .  A
C2556      O2560   1.371       .  S
O2558      H3480   0.991   1_545  S
O2560      H3479   0.992       .  S
H2561      O3478   0.992       .  S
H2562      O3476   0.991       .  S
C2563      C2564   1.403       .  A
C2563      C2568   1.409       .  A
C2564      H2569   1.081       .  S
C2565      C2566   1.408       .  A
C2565      O2570   1.373       .  S
C2566      C2567   1.400       .  A
C2567      H2571   1.083       .  S
C2568      O2572   1.371       .  S
O2570      H2574   0.990       .  S
C2575      C2576   1.415       .  A
C2575      C2580   1.408       .  A
C2576      C2577   1.417       .  A
C2576      H2581   1.082       .  S
C2577      C2578   1.409       .  A
C2578      C2579   1.416       .  A
C2579      C2580   1.413       .  A
C2579      H2583   1.082       .  S
C2580      O2584   1.371       .  S
O2582      H2586   0.992       .  S
O2584      H2585   0.992       .  S
C2587      C2588   1.417       .  A
C2587      C2592   1.417       .  A
C2588      C2589   1.428       .  A
C2588      H2593   1.081       .  S
C2589      C2590   1.419       .  A
C2589      O2594   1.371       .  S
C2590      C2591   1.392       .  A
C2591      C2592   1.383       .  A
C2591      H2595   1.080       .  S
C2592      O3514   1.369       .  S
O2594      H2598   0.992       .  S
O2596      C3510   1.369   1_545  S
O2596      H2597   0.990       .  S
C2599      C2604   1.409       .  A
C2600      C2601   1.397       .  A
C2600      H2605   1.085       .  S
C2601      C2602   1.437   1_455  A
C2601      O2606   1.372   1_455  S
C2603      C2604   1.412       .  A
C2603      H2607   1.078       .  S
C2604      O2608   1.370       .  S
O2606      H2610   0.992   1_655  S
O2608      H2609   0.992       .  S
C2611      C2612   1.411       .  A
C2611      C2616   1.412       .  A
C2612      C2613   1.408       .  A
C2612      H2617   1.084       .  S
C2613      C2614   1.410       .  A
C2613      O2618   1.373       .  S
C2614      C2615   1.398       .  A
C2615      C2616   1.401       .  A
C2615      H2619   1.078       .  S
C2616      O2620   1.378       .  S
O2618      H2622   0.993       .  S
O2620      H2621   0.994       .  S
C2623      C2624   1.412       .  A
C2623      C2628   1.420       .  A
C2624      C2625   1.408       .  A
C2624      H2629   1.067       .  S
C2625      C2626   1.404       .  A
C2625      O2630   1.371       .  S
C2626      C2627   1.399       .  A
C2627      C2628   1.397       .  A
C2627      H3549   1.084       .  S
C2628      O2632   1.371       .  S
O2630      H2634   0.992       .  S
H2631      C3545   1.084       .  S
O2632      H3551   0.992       .  S
H2633      O3550   0.993       .  S
C2635      C2636   1.406       .  A
C2635      C2640   1.401       .  A
C2636      C3555   1.417       .  A
C2636      H2641   1.083       .  S
C2637      C3554   1.424   1_545  A
C2637      C2638   1.428       .  A
C2637      O2642   1.369       .  S
C2638      C2639   1.426       .  A
C2639      C3558   1.385   1_545  A
C2639      H2643   1.071       .  S
C2640      C3557   1.392       .  A
C2640      O2644   1.372       .  S
O2642      H3564   0.993       .  S
O2644      H3563   0.990       .  S
H2645      O3562   0.990       .  S
H2646      O3560   0.992       .  S
C2647      C2648   1.404       .  A
C2647      C2652   1.409       .  A
C2648      C2649   1.413       .  A
C2648      H2653   1.083       .  S
C2649      C2650   1.418       .  A
C2649      O2654   1.366       .  S
C2650      C2651   1.404       .  A
C2651      C2652   1.404       .  A
C2651      H2655   1.070       .  S
C2652      O2656   1.372   1_554  S
O2654      H2658   0.990       .  S
O2656      H2657   0.991       .  S
C2659      C2660   1.405       .  A
C2659      C2664   1.407       .  A
C2660      C2661   1.403       .  A
C2660      H2665   1.079       .  S
C2661      C2662   1.411       .  A
C2661      O2666   1.366       .  S
C2662      C2663   1.403       .  A
C2663      C2664   1.400       .  A
C2663      H2667   1.074       .  S
C2664      O2668   1.368   1_554  S
O2666      H2670   0.991       .  S
O2668      H2669   0.991       .  S
C2671      C2672   1.400       .  A
C2671      C3594   1.409       .  A
C2672      C2673   1.408       .  A
C2672      H2677   1.083       .  S
C2673      C3592   1.428       .  A
C2673      O2678   1.371       .  S
C2674      C3591   1.414   1_545  A
C2674      C2675   1.404       .  A
C2675      C2676   1.409   1_545  A
C2675      H2679   1.075       .  S
C2676      C3589   1.413       .  A
C2676      O2680   1.372       .  S
O2678      H2682   0.993       .  S
O2680      H2681   0.992   1_565  S
C2683      C2684   1.403       .  A
C2683      C2688   1.395       .  A
C2684      C2685   1.401       .  A
C2684      H2689   1.080       .  S
C2685      C2686   1.423       .  A
C2685      O2690   1.370       .  S
C2686      C2687   1.395       .  A
C2687      C2688   1.395       .  A
C2687      H2691   1.076       .  S
C2688      O2692   1.365       .  S
O2690      H2694   0.992       .  S
O2692      H2693   0.990       .  S
C2695      C2696   1.401       .  A
C2695      C2700   1.403       .  A
C2696      H2701   1.084       .  S
C2697      C2698   1.399       .  A
C2697      O2702   1.372       .  S
C2698      C2699   1.400       .  A
C2699      H2703   1.082       .  S
C2700      O2704   1.375       .  S
O2702      H2706   0.994       .  S
O2704      H2705   0.992       .  S
C2707      C2708   1.408       .  A
C2707      C2712   1.400       .  A
C2708      C2709   1.417       .  A
C2708      H2713   1.083       .  S
C2709      C2710   1.422       .  A
C2709      O2714   1.367       .  S
C2710      C2711   1.425       .  A
C2711      C2712   1.401       .  A
C2712      O2716   1.371       .  S
O2714      H2718   0.991       .  S
C2719      C2720   1.416       .  A
C2719      C2724   1.417       .  A
C2720      C2721   1.395       .  A
C2720      H2725   1.082       .  S
C2721      C2722   1.403       .  A
C2721      O2726   1.373       .  S
C2722      C2723   1.416       .  A
C2723      C2724   1.417       .  A
C2723      H2727   1.076       .  S
C2724      O2728   1.370       .  S
O2726      H2730   0.991       .  S
O2728      H2729   0.991       .  S
C2731      C2732   1.413       .  A
C2731      C2736   1.405       .  A
C2732      H2737   1.080       .  S
C2733      C2734   1.413       .  A
C2733      O2738   1.371       .  S
C2734      C2735   1.415       .  A
C2735      H2739   1.084       .  S
C2736      O2740   1.373       .  S
O2738      H2742   0.990       .  S
O2740      H2741   0.994       .  S
C2743      C2744   1.407       .  A
C2743      C2748   1.416       .  A
C2744      C2745   1.412       .  A
C2744      H2749   1.079       .  S
C2745      C2746   1.413       .  A
C2745      O2750   1.368       .  S
C2746      C2747   1.403       .  A
C2747      C2748   1.409       .  A
C2747      H2751   1.075       .  S
C2748      O2752   1.367       .  S
O2750      H2754   0.993       .  S
O2752      H2753   0.991       .  S
C2755      C2756   1.451       .  A
C2755      C2760   1.446       .  A
C2755      C3601   1.520       .  S
C2756      C2757   1.418       .  A
C2756      C3661   1.525       .  S
C2757      C2758   1.421       .  A
C2757      C3649   1.510       .  S
C2758      C2759   1.417       .  A
C2758      C3616   1.457       .  S
C2759      C2760   1.410       .  A
C2759      C3625   1.516       .  S
C2760      C3640   1.513       .  S
C2761      C2762   1.433       .  A
C2761      C2766   1.419       .  A
C2761      C3664   1.501       .  S
C2762      C2763   1.417       .  A
C2762      C3592   1.535       .  S
C2763      C2764   1.420       .  A
C2763      H2768   1.080       .  S
C2764      C2765   1.426       .  A
C2764      C3580   1.511       .  S
C2765      C2766   1.408       .  A
C2765      C3568   1.512       .  S
C2766      H2767   1.081       .  S
C2769      C2770   1.428       .  A
C2769      C2774   1.418       .  A
C2769      C3652   1.522       .  S
C2770      C2771   1.420       .  A
C2770      C3556   1.538       .  S
C2771      C2772   1.418       .  A
C2771      H2776   1.073       .  S
C2772      C2773   1.436       .  A
C2772      C3541   1.546       .  S
C2773      C2774   1.415       .  A
C2773      C3529   1.506       .  S
C2774      H2775   1.080       .  S
C2777      C2778   1.454       .  A
C2777      C2782   1.457       .  A
C2777      C3469   1.544       .  S
C2778      C2779   1.420       .  A
C2778      C3589   1.524       .  S
C2779      C2780   1.427       .  A
C2779      C3517   1.503       .  S
C2780      C2781   1.422       .  A
C2780      C3481   1.494       .  S
C2781      C2782   1.421       .  A
C2781      C3493   1.519       .  S
C2782      C3508   1.512       .  S
C2783      C2784   1.427       .  A
C2783      C2788   1.434       .  A
C2783      C3421   1.486       .  S
C2784      C2785   1.422       .  A
C2784      C3457   1.528       .  S
C2785      C2786   1.440       .  A
C2785      C3553   1.496       .  S
C2786      C2787   1.432       .  A
C2786      C3409   1.505       .  S
C2787      C2788   1.430       .  A
C2787      C3436   1.522       .  S
C2788      C3448   1.513       .  S
C2789      C2790   1.428       .  A
C2789      C2794   1.406       .  A
C2789      C3460   1.509       .  S
C2790      C2791   1.417       .  A
C2790      C3520   1.523       .  S
C2791      C2792   1.408       .  A
C2791      H2796   1.071       .  S
C2792      C2793   1.419       .  A
C2792      C3388   1.505       .  S
C2793      C2794   1.412       .  A
C2793      C3397   1.513       .  S
C2794      H2795   1.072       .  S
C2797      C2798   1.425   1_556  A
C2797      C3349   1.478       .  S
C2798      C2799   1.409       .  A
C2798      C3577   1.502       .  S
C2799      C2800   1.426   1_554  A
C2799      C3544   1.506       .  S
C2800      C3337   1.474   1_556  S
C2801      C2802   1.409       .  A
C2801      C3373   1.498       .  S
C2802      C3361   1.499       .  S
C2803      C2804   1.426   1_556  A
C2803      C2808   1.429       .  A
C2803      C3292   1.471       .  S
C2804      C2805   1.408       .  A
C2804      C3565   1.523       .  S
C2805      C2806   1.432   1_554  A
C2805      C3400   1.497       .  S
C2806      C2807   1.420       .  A
C2806      C3304   1.474       .  S
C2807      C2808   1.410       .  A
C2807      C3313   1.519       .  S
C2808      C3325   1.493       .  S
C2809      C2814   1.432       .  A
C2809      C3253   1.477   1_556  S
C2810      C2811   1.419       .  A
C2810      C3385   1.525       .  S
C2811      C3532   1.504       .  S
C2812      C2813   1.423       .  A
C2812      C3244   1.490       .  S
C2813      C2814   1.417       .  A
C2813      C3277   1.507       .  S
C2814      C3268   1.509       .  S
C2815      C2816   1.430       .  A
C2815      C2820   1.427       .  A
C2815      C3172   1.481       .  S
C2816      C2817   1.410       .  A
C2816      C3229   1.503       .  S
C2817      C2818   1.421       .  A
C2817      C3217   1.503       .  S
C2818      C2819   1.433       .  A
C2818      C3181   1.480       .  S
C2819      C2820   1.412       .  A
C2819      C3193   1.500       .  S
C2820      C3205   1.518       .  S
C2821      C2822   1.413       .  A
C2821      C2826   1.407       .  A
C2821      C3328   1.476       .  S
C2822      C2823   1.410       .  A
C2822      C3280   1.526       .  S
C2823      C2824   1.417       .  A
C2823      H2828   1.083       .  S
C2824      C2825   1.423       .  A
C2824      C3160   1.487       .  S
C2825      C2826   1.408       .  A
C2825      C3208   1.527       .  S
C2826      H2827   1.082       .  S
C2829      C2830   1.424       .  A
C2829      C2834   1.410       .  A
C2829      C3265   1.491       .  S
C2830      C2831   1.413       .  A
C2830      C3364   1.528       .  S
C2831      C2832   1.414       .  A
C2831      H2836   1.082       .  S
C2832      C2833   1.429       .  A
C2832      C3196   1.493       .  S
C2833      C2834   1.411       .  A
C2833      C3148   1.532       .  S
C2834      H2835   1.080       .  S
C2837      C2838   1.430       .  A
C2837      C2842   1.437       .  A
C2837      C3088   1.479       .  S
C2838      C2839   1.408       .  A
C2838      C3112   1.515       .  S
C2839      C2840   1.423       .  A
C2839      C3157   1.509       .  S
C2840      C2841   1.427       .  A
C2840      C3097   1.465       .  S
C2841      C2842   1.429       .  A
C2841      C3136   1.528       .  S
C2842      C3124   1.515       .  S
C2843      C2844   1.422       .  A
C2843      C2848   1.431       .  A
C2843      C3025   1.481       .  S
C2844      C2845   1.401       .  A
C2844      C3145   1.494       .  S
C2845      C2846   1.415       .  A
C2845      C3049   1.497       .  S
C2846      C2847   1.423       .  A
C2846      C3037   1.468       .  S
C2847      C2848   1.415       .  A
C2847      C3064   1.504       .  S
C2848      C3073   1.503       .  S
C2849      C2850   1.423       .  A
C2849      C2854   1.413       .  A
C2849      C3376   1.486       .  S
C2850      C2851   1.413       .  A
C2850      C3316   1.530       .  S
C2851      C2852   1.415       .  A
C2851      H2856   1.085       .  S
C2852      C2853   1.421       .  A
C2852      C3052   1.480       .  S
C2853      C2854   1.411       .  A
C2853      C3109   1.535       .  S
C2854      H2855   1.083       .  S
C2857      C2858   1.440       .  A
C2857      C2862   1.413       .  A
C2857      C3496   1.505       .  S
C2858      C2859   1.428       .  A
C2858      C3628   1.551       .  S
C2859      H2864   1.078       .  S
C2860      C2861   1.428       .  A
C2860      C3133   1.521       .  S
C2861      C3076   1.526       .  S
C2862      H2863   1.085       .  S
C2865      C2866   1.427       .  A
C2865      C2870   1.425       .  A
C2865      C3445   1.515       .  S
C2866      C2867   1.408       .  A
C2866      C3637   1.513       .  S
C2867      C2868   1.402       .  A
C2867      H2872   1.078       .  S
C2868      C2869   1.423       .  A
C2868      C3232   1.517       .  S
C2869      C2870   1.423       .  A
C2869      C3061   1.508       .  S
C2870      H2871   1.082       .  S
C2873      C2874   1.437       .  A
C2873      C3433   1.530       .  S
C2874      C3505   1.530       .  S
C2875      C2876   1.422       .  A
C2875      H2880   1.081       .  S
C2876      C2877   1.438       .  A
C2876      C3220   1.556       .  S
C2877      C2878   1.420       .  A
C2877      C3121   1.507       .  S
C2878      H2879   1.081       .  S
O2881      C2916   1.235   1_554  S
O2881     Mg2889   2.148       .  S
C2882      H2921   1.081       .  S
C2882      O2895   1.237       .  S
C2882      O2919   1.274       .  A
Mg2883     O2912   2.138       .  S
Mg2883     O2927   2.257       .  S
Mg2883     O2923   2.221       .  S
Mg2883     O2894   2.291   1_554  S
O2884      C2905   1.233       .  S
O2884     Mg2926   2.133   1_556  S
O2884     Mg2909   2.149       .  S
O2885     Mg2909   2.302       .  S
C2886      O2888   1.263       .  A
O2887     Mg2889   2.321       .  S
O2888     Mg2920   2.216       .  S
Mg2889     O2903   2.239       .  S
Mg2889     O2891   2.265       .  S
C2890      C3352   1.461       .  S
C2890      O2896   1.274       .  A
H2892      C2905   1.081       .  S
C2893      H2918   1.079       .  S
C2893      O2907   1.239       .  S
O2894      C2917   1.269       .  A
O2895     Mg2909   2.130   1_554  S
O2896     Mg2926   2.318   1_556  S
C2897      C3289   1.446       .  S
C2897      O2910   1.264       .  A
C2897      O2902   1.257       .  A
C2898      C3241   1.462       .  S
C2898      O2925   1.265       .  A
Mg2899     O2907   2.136       .  S
Mg2899     O2900   2.266       .  S
Mg2899     O2901   2.308   1_554  S
Mg2899     O2928   2.176       .  S
O2902     Mg2909   2.228   1_554  S
O2903      C2922   1.263       .  A
O2904      C2924   1.265       .  A
O2904     Mg2920   2.234       .  S
O2906      C2917   1.236       .  S
O2906     Mg2920   2.135   1_556  S
O2908     Mg2920   2.292       .  S
Mg2909     O2925   2.243   1_556  S
O2910     Mg2926   2.250       .  S
H2911      C2916   1.081       .  S
O2912      C2915   1.235       .  S
O2912     Mg2920   2.107       .  S
H2913      C2915   1.080       .  S
H2914      C2917   1.081       .  S
O2919     Mg2926   2.328       .  S
C2922      C3340   1.458       .  S
O2923      C2924   1.266       .  A
C2924      C3301   1.458   1_554  S
O2929      C2964   1.238       .  S
O2929     Mg2931   2.167       .  S
O2929     Mg2937   2.156       .  S
C2930      H2969   1.081       .  S
C2930      O2943   1.235       .  S
C2930      O2967   1.270       .  A
Mg2931     O2960   2.165       .  S
Mg2931     O2975   2.317       .  S
Mg2931     O2971   2.291       .  S
Mg2931     O2942   2.303       .  S
O2932      C2953   1.236       .  S
O2932     Mg2974   2.147       .  S
O2932     Mg2957   2.125       .  S
O2933      C2964   1.276       .  A
O2933     Mg2957   2.334       .  S
C2934      C3412   1.478       .  S
C2934      O2936   1.271       .  A
C2934      O2948   1.270       .  A
O2935      C2963   1.270       .  A
O2935     Mg2937   2.305       .  S
O2936     Mg2968   2.262       .  S
Mg2937     O2943   2.105       .  S
Mg2937     O2951   2.142       .  S
Mg2937     O2939   2.285       .  S
C2938      C3613   1.447       .  S
C2938      O2976   1.266       .  A
C2938      O2944   1.265       .  A
O2939      C2946   1.262       .  A
H2940      C2953   1.081       .  S
C2941      H2966   1.081       .  S
C2941      O2955   1.238       .  S
C2941      O2956   1.273       .  A
O2942      C2965   1.267       .  A
O2943     Mg2957   2.110       .  S
O2944     Mg2974   2.240       .  S
C2945      C3484   1.460       .  S
C2945      O2958   1.266       .  A
C2945      O2950   1.264       .  A
C2946      C3424   1.470       .  S
C2946      O2973   1.264       .  A
Mg2947     O2954   2.123       .  S
Mg2947     O2955   2.154       .  S
Mg2947     O2948   2.291       .  S
Mg2947     O2949   2.302       .  S
Mg2947     O2976   2.227       .  S
O2949      C2953   1.270       .  A
O2950     Mg2957   2.283       .  S
O2951      C2970   1.255       .  A
O2952      C2972   1.269       .  A
O2952     Mg2968   2.289       .  S
O2954      C2965   1.232       .  S
O2954     Mg2968   2.115       .  S
O2955     Mg2974   2.143       .  S
O2956     Mg2968   2.311       .  S
Mg2957     O2973   2.246       .  S
O2958     Mg2974   2.247       .  S
H2959      C2964   1.081       .  S
O2960      C2963   1.235       .  S
O2960     Mg2968   2.166       .  S
H2961      C2963   1.081       .  S
H2962      C2965   1.082       .  S
O2967     Mg2974   2.305       .  S
C2970      C3604   1.467       .  S
C2970      O2975   1.277       .  A
O2971      C2972   1.276       .  A
C2972      C3472   1.475       .  S
O2977      C3012   1.232       .  S
O2977     Mg2979   2.113       .  S
O2977     Mg2985   2.130       .  S
C2978      H3017   1.082       .  S
C2978      O2991   1.237       .  S
C2978      O3015   1.271       .  A
Mg2979     O3008   2.129       .  S
Mg2979     O3023   2.252       .  S
Mg2979     O3019   2.219       .  S
Mg2979     O2990   2.298       .  S
O2980      C3001   1.236       .  S
O2980     Mg3022   2.138       .  S
O2980     Mg3005   2.108       .  S
O2981      C3012   1.265       .  A
O2981     Mg3005   2.290       .  S
C2982      C3169   1.456       .  S
C2982      O2984   1.266       .  A
C2982      O2996   1.266       .  A
O2983      C3011   1.270       .  A
O2983     Mg2985   2.304       .  S
O2984     Mg3016   2.223       .  S
Mg2985     O2991   2.133       .  S
Mg2985     O2999   2.245       .  S
Mg2985     O2987   2.273       .  S
C2986      C3040   1.449       .  S
C2986      O3024   1.261       .  A
C2986      O2992   1.261       .  A
O2987      C2994   1.269       .  A
H2988      C3001   1.081       .  S
C2989      H3014   1.082       .  S
C2989      O3003   1.234       .  S
C2989      O3004   1.267       .  A
O2990      C3013   1.271       .  A
O2991     Mg3005   2.164       .  S
O2992     Mg3022   2.251       .  S
C2993      C3085   1.443       .  S
C2993      O3006   1.261       .  A
C2993      O2998   1.266       .  A
C2994      C3184   1.444       .  S
C2994      O3021   1.264       .  A
Mg2995     O3002   2.108       .  S
Mg2995     O3003   2.131       .  S
Mg2995     O2996   2.259       .  S
Mg2995     O2997   2.309       .  S
Mg2995     O3024   2.217       .  S
O2997      C3001   1.271       .  A
O2998     Mg3005   2.233       .  S
O2999      C3018   1.268       .  A
O3000      C3020   1.265       .  A
O3000     Mg3016   2.239       .  S
O3002      C3013   1.238       .  S
O3002     Mg3016   2.148       .  S
O3003     Mg3022   2.115       .  S
O3004     Mg3016   2.297       .  S
Mg3005     O3021   2.212       .  S
O3006     Mg3022   2.208       .  S
H3007      C3012   1.082       .  S
O3008      C3011   1.236       .  S
O3008     Mg3016   2.103       .  S
H3009      C3011   1.082       .  S
H3010      C3013   1.081       .  S
O3015     Mg3022   2.310       .  S
C3018      C3028   1.464       .  S
C3018      O3023   1.264       .  A
O3019      C3020   1.264       .  A
C3020      C3100   1.443       .  S
C3025      C3026   1.402       .  A
C3025      C3030   1.405       .  A
C3026      H3031   1.080       .  S
C3027      C3028   1.407       .  A
C3027      O3032   1.372       .  S
C3028      C3029   1.407       .  A
C3029      H3033   1.084       .  S
C3030      O3034   1.372       .  S
O3032      H3036   0.992       .  S
O3034      H3035   0.991       .  S
C3037      C3038   1.401       .  A
C3037      C3042   1.401       .  A
C3038      C3039   1.388       .  A
C3038      H3043   1.084       .  S
C3039      C3040   1.402       .  A
C3039      O3044   1.368       .  S
C3040      C3041   1.403       .  A
C3041      C3042   1.390       .  A
C3041      H3045   1.084       .  S
C3042      O3046   1.372       .  S
O3044      H3048   0.992       .  S
O3046      H3047   0.991       .  S
C3049      C3050   1.400       .  A
C3049      C3054   1.413       .  A
C3050      C3051   1.399       .  A
C3050      H3055   1.081       .  S
C3051      C3052   1.412       .  A
C3051      O3056   1.375       .  S
C3052      C3053   1.401       .  A
C3053      C3054   1.402       .  A
C3053      H3057   1.083       .  S
C3054      O3058   1.370       .  S
O3056      H3060   0.991       .  S
O3058      H3059   0.991       .  S
C3061      C3062   1.406       .  A
C3061      C3066   1.416       .  A
C3062      C3063   1.408       .  A
C3062      H3067   1.083       .  S
C3063      C3064   1.415       .  A
C3063      O3068   1.370       .  S
C3064      C3065   1.397       .  A
C3065      C3066   1.404       .  A
C3065      H3069   1.083       .  S
C3066      O3070   1.367       .  S
O3068      H3072   0.992       .  S
O3070      H3071   0.992       .  S
C3073      C3074   1.392       .  A
C3073      C3078   1.410       .  A
C3074      C3075   1.390       .  A
C3074      H3079   1.082       .  S
C3075      C3076   1.427       .  A
C3076      C3077   1.416       .  A
C3077      C3078   1.420       .  A
C3077      H3081   1.078       .  S
C3078      O3082   1.371       .  S
O3080      H3084   0.992       .  S
O3082      H3083   0.992       .  S
C3085      C3086   1.393       .  A
C3085      C3090   1.403       .  A
C3086      H3091   1.085       .  S
C3087      C3088   1.411       .  A
C3087      O3092   1.377       .  S
C3089      C3090   1.392   1_545  A
C3089      H3093   1.084       .  S
C3090      O3094   1.372       .  S
O3092      H3096   0.993       .  S
O3094      H3095   0.992       .  S
C3097      C3098   1.398       .  A
C3098      H3103   1.084       .  S
C3099      C3100   1.401       .  A
C3099      O3104   1.372       .  S
C3100      C3101   1.399       .  A
C3101      C3102   1.392       .  A
C3101      H3105   1.084       .  S
C3102      O3106   1.374       .  S
O3106      H3107   0.991       .  S
C3109      C3110   1.418   1_565  A
C3109      C3114   1.425       .  A
C3110      H3115   1.080   1_545  S
C3111      C3112   1.402       .  A
C3111      O3116   1.373       .  S
C3112      C3113   1.406       .  A
C3113      H3117   1.083       .  S
C3114      O3118   1.367       .  S
O3116      H3120   0.991       .  S
O3118      H3119   0.991       .  S
C3121      C3122   1.412       .  A
C3121      C3126   1.409       .  A
C3122      C3123   1.412       .  A
C3122      H3127   1.083       .  S
C3123      C3124   1.411       .  A
C3123      O3128   1.373       .  S
C3124      C3125   1.406       .  A
C3125      C3126   1.409       .  A
C3125      H3129   1.071       .  S
O3128      H3132   0.992       .  S
O3130      H3131   0.992       .  S
C3133      C3134   1.409       .  A
C3133      C3138   1.416       .  A
C3134      C3135   1.426       .  A
C3134      H3139   1.083       .  S
C3135      C3136   1.421       .  A
C3135      O3140   1.376       .  S
C3136      C3137   1.405       .  A
C3137      C3138   1.407       .  A
C3137      H3141   1.076       .  S
C3138      O3142   1.371       .  S
O3140      H3144   0.993       .  S
O3142      H3143   0.993       .  S
C3145      C3146   1.399       .  A
C3146      C3147   1.400       .  A
C3146      H3151   1.083       .  S
C3147      O3152   1.370       .  S
C3148      C3149   1.412       .  A
C3149      C3150   1.407       .  A
C3149      H3153   1.062       .  S
C3150      O3154   1.371       .  S
O3152      H3156   0.991       .  S
O3154      H3155   0.991       .  S
C3157      C3162   1.409       .  A
C3158      C3159   1.407       .  A
C3158      H3163   1.081       .  S
C3159      C3160   1.404       .  A
C3159      O3164   1.370       .  S
C3161      C3162   1.402   1_455  A
C3161      H3165   1.084       .  S
C3162      O3166   1.370       .  S
O3164      H3168   0.992       .  S
O3166      H3167   0.992       .  S
C3169      C3170   1.397       .  A
C3169      C3174   1.408       .  A
C3170      C3171   1.389       .  A
C3170      H3175   1.083       .  S
C3171      C3172   1.407       .  A
C3171      O3176   1.373       .  S
C3172      C3173   1.402       .  A
C3173      C3174   1.396       .  A
C3173      H3177   1.083       .  S
C3174      O3178   1.372       .  S
O3176      H3180   0.991       .  S
O3178      H3179   0.993       .  S
C3181      C3186   1.402       .  A
C3182      C3183   1.392   1_545  A
C3182      H3187   1.082       .  S
C3183      C3184   1.398       .  A
C3183      O3188   1.372       .  S
C3184      C3185   1.400       .  A
C3185      H3189   1.084       .  S
C3186      O3190   1.371       .  S
O3188      H3192   0.992       .  S
O3190      H3191   0.992       .  S
C3193      C3194   1.405       .  A
C3193      C3198   1.406       .  A
C3194      H3199   1.083       .  S
C3195      C3196   1.414       .  A
C3195      O3200   1.370       .  S
C3196      C3197   1.403       .  A
C3197      H3201   1.083       .  S
C3198      O3202   1.369       .  S
C3205      C3206   1.397       .  A
C3205      C3210   1.414       .  A
C3206      C3207   1.400       .  A
C3206      H3211   1.084       .  S
C3207      C3208   1.425       .  A
C3207      O3212   1.374       .  S
C3208      C3209   1.415       .  A
C3209      C3210   1.421       .  A
C3209      H3213   1.079       .  S
C3210      O3214   1.372       .  S
O3212      H3216   0.984       .  S
O3214      H3215   0.990       .  S
C3217      C3218   1.403       .  A
C3217      C3222   1.400       .  A
C3218      C3219   1.411       .  A
C3218      H3223   1.082       .  S
C3219      C3220   1.424       .  A
C3219      O3224   1.365       .  S
C3220      C3221   1.423       .  A
C3221      C3222   1.402       .  A
C3222      O3226   1.372       .  S
O3224      H3228   0.992       .  S
C3229      C3230   1.393       .  A
C3229      C3234   1.415       .  A
C3230      C3231   1.384       .  A
C3230      H3235   1.080       .  S
C3231      C3232   1.421       .  A
C3231      O3236   1.374       .  S
C3232      C3233   1.412       .  A
C3233      C3234   1.419       .  A
C3233      H3237   1.080       .  S
C3234      O3238   1.372       .  S
O3236      H3240   0.992       .  S
O3238      H3239   0.992       .  S
C3241      C3246   1.406       .  A
C3242      C3243   1.395       .  A
C3242      H3247   1.084       .  S
C3243      O3248   1.376       .  S
C3244      C3245   1.402   1_556  A
C3245      C3246   1.397       .  A
C3245      H3249   1.084       .  S
C3246      O3250   1.372       .  S
O3248      H3252   0.993       .  S
O3250      H3251   0.990       .  S
C3253      C3258   1.410       .  A
C3254      C3255   1.389       .  A
C3254      H3259   1.084       .  S
C3255      O3260   1.371       .  S
C3256      C3257   1.397       .  A
C3257      C3258   1.395       .  A
C3257      H3261   1.084       .  S
C3258      O3262   1.373       .  S
O3260      H3264   0.993       .  S
O3262      H3263   0.991       .  S
C3265      C3266   1.407       .  A
C3265      C3270   1.409       .  A
C3266      C3267   1.405       .  A
C3266      H3271   1.078       .  S
C3267      C3268   1.412       .  A
C3267      O3272   1.373       .  S
C3268      C3269   1.406       .  A
C3269      C3270   1.401       .  A
C3269      H3273   1.078   1_556  S
C3270      O3274   1.378       .  S
O3274      H3275   0.992       .  S
C3277      C3278   1.396       .  A
C3277      C3282   1.406       .  A
C3278      C3279   1.396       .  A
C3279      C3280   1.423       .  A
C3279      O3284   1.371       .  S
C3280      C3281   1.418       .  A
C3281      C3282   1.414       .  A
C3281      H3285   1.076       .  S
C3282      O3286   1.371       .  S
O3286      H3287   0.992       .  S
C3289      C3290   1.395       .  A
C3289      C3294   1.404   1_554  A
C3290      C3291   1.393       .  A
C3290      H3295   1.078       .  S
C3291      C3292   1.405   1_554  A
C3291      O3296   1.372       .  S
C3292      C3293   1.396       .  A
C3293      C3294   1.390       .  A
C3293      H3297   1.079       .  S
C3294      O3298   1.373       .  S
O3296      H3300   0.990       .  S
O3298      H3299   0.992       .  S
C3301      C3302   1.405       .  A
C3301      C3306   1.404   1_556  A
C3302      C3303   1.393       .  A
C3302      H3307   1.084       .  S
C3303      C3304   1.403       .  A
C3303      O3308   1.373       .  S
C3304      C3305   1.401   1_556  A
C3305      C3306   1.387       .  A
C3305      H3309   1.084       .  S
C3306      O3310   1.372       .  S
O3308      H3312   0.992       .  S
O3310      H3311   0.991       .  S
C3313      C3314   1.410       .  A
C3313      C3318   1.406       .  A
C3314      C3315   1.422       .  A
C3314      H3319   1.083       .  S
C3315      C3316   1.421       .  A
C3315      O3320   1.369       .  S
C3316      C3317   1.414       .  A
C3317      C3318   1.397       .  A
C3317      H3321   1.079       .  S
C3318      O3322   1.372       .  S
O3320      H3324   0.992       .  S
O3322      H3323   0.992       .  S
C3325      C3326   1.410       .  A
C3325      C3330   1.407       .  A
C3326      C3327   1.401       .  A
C3326      H3331   1.083   1_556  S
C3327      C3328   1.402       .  A
C3327      O3332   1.372       .  S
C3328      C3329   1.405       .  A
C3329      C3330   1.397       .  A
C3329      H3333   1.084       .  S
C3330      O3334   1.371       .  S
O3332      H3336   0.991       .  S
O3334      H3335   0.992       .  S
C3337      C3342   1.403   1_554  A
C3338      C3339   1.391       .  A
C3338      H3343   1.083       .  S
C3339      O3344   1.369       .  S
C3340      C3341   1.404       .  A
C3341      C3342   1.393   1_554  A
C3341      H3345   1.084       .  S
C3342      O3346   1.372       .  S
O3344      H3348   0.993       .  S
O3346      H3347   0.991       .  S
C3349      C3354   1.407       .  A
C3350      C3351   1.386       .  A
C3350      H3355   1.084       .  S
C3351      O3356   1.372       .  S
C3352      C3353   1.402       .  A
C3353      C3354   1.401       .  A
C3353      H3357   1.082       .  S
C3354      O3358   1.373       .  S
O3356      H3360   0.992       .  S
O3358      H3359   0.990       .  S
C3361      C3362   1.399       .  A
C3361      C3366   1.405       .  A
C3362      C3363   1.401       .  A
C3362      H3367   1.080       .  S
C3363      C3364   1.422       .  A
C3363      O3368   1.372       .  S
C3364      C3365   1.412       .  A
C3365      C3366   1.407       .  A
C3365      H3369   1.063       .  S
C3366      O3370   1.371       .  S
O3368      H3372   0.992       .  S
O3370      H3371   0.992       .  S
C3373      C3374   1.409       .  A
C3373      C3378   1.407       .  A
C3374      C3375   1.407       .  A
C3374      H3379   1.081       .  S
C3375      C3376   1.403       .  A
C3375      O3380   1.369       .  S
C3376      C3377   1.407       .  A
C3377      C3378   1.400       .  A
C3377      H3381   1.085       .  S
C3378      O3382   1.374       .  S
O3380      H3384   0.992       .  S
O3382      H3383   0.991       .  S
C3385      C3386   1.402       .  A
C3385      C3390   1.421       .  A
C3386      C3387   1.401       .  A
C3386      H3391   1.069       .  S
C3387      C3388   1.410       .  A
C3387      O3392   1.371       .  S
C3388      C3389   1.406       .  A
C3389      C3390   1.417       .  A
C3389      H3393   1.083       .  S
C3390      O3394   1.371   1_554  S
O3392      H3396   0.989       .  S
O3394      H3395   0.992       .  S
C3397      C3398   1.414       .  A
C3397      C3402   1.423       .  A
C3398      C3399   1.410       .  A
C3398      H3403   1.078       .  S
C3399      C3400   1.410       .  A
C3399      O3404   1.371       .  S
C3400      C3401   1.395       .  A
C3401      C3402   1.390       .  A
C3401      H3405   1.083       .  S
C3402      O3406   1.375       .  S
O3404      H3408   0.991   1_554  S
O3406      H3407   0.992       .  S
C3409      C3414   1.411       .  A
C3410      C3411   1.404       .  A
C3410      H3415   1.083       .  S
C3411      C3412   1.410       .  A
C3411      O3416   1.371       .  S
C3412      C3413   1.402       .  A
C3413      H3417   1.084       .  S
C3414      O3418   1.370       .  S
O3416      H3420   0.992       .  S
O3418      H3419   0.992       .  S
C3421      C3422   1.398       .  A
C3421      C3426   1.411       .  A
C3422      C3423   1.392       .  A
C3422      H3427   1.084       .  S
C3423      C3424   1.409       .  A
C3423      O3428   1.370       .  S
C3424      C3425   1.400       .  A
C3425      C3426   1.403       .  A
C3425      H3429   1.083       .  S
C3426      O3430   1.374       .  S
O3428      H3432   0.991       .  S
O3430      H3431   0.993       .  S
C3433      C3434   1.411       .  A
C3433      C3438   1.424       .  A
C3434      C3435   1.419       .  A
C3434      H3439   1.081       .  S
C3435      C3436   1.416       .  A
C3435      O3440   1.370       .  S
C3436      C3437   1.402       .  A
C3437      C3438   1.410       .  A
C3437      H3441   1.082       .  S
C3438      O3442   1.376       .  S
O3440      H3444   0.991       .  S
O3442      H3443   0.992       .  S
C3445      C3446   1.406       .  A
C3445      C3450   1.410       .  A
C3446      C3447   1.411       .  A
C3446      H3451   1.076       .  S
C3447      C3448   1.416       .  A
C3447      O3452   1.369       .  S
C3448      C3449   1.400       .  A
C3449      C3450   1.403       .  A
C3449      H3453   1.077       .  S
C3450      O3454   1.363       .  S
O3452      H3456   0.992       .  S
O3454      H3455   0.991       .  S
C3457      C3458   1.416       .  A
C3457      C3462   1.411       .  A
C3458      C3459   1.417       .  A
C3458      H3463   1.083       .  S
C3459      C3460   1.408       .  A
C3459      O3464   1.372       .  S
C3460      C3461   1.410       .  A
C3461      C3462   1.409       .  A
C3461      H3465   1.084       .  S
C3462      O3466   1.368       .  S
O3464      H3468   0.992       .  S
O3466      H3467   0.992       .  S
C3469      C3470   1.405       .  A
C3469      C3474   1.410       .  A
C3470      H3475   1.073       .  S
C3471      C3472   1.403       .  A
C3471      O3476   1.372       .  S
C3472      C3473   1.409       .  A
C3473      H3477   1.083       .  S
C3474      O3478   1.368       .  S
C3481      C3482   1.401       .  A
C3481      C3486   1.411       .  A
C3482      H3487   1.080       .  S
C3483      C3484   1.405       .  A
C3483      O3488   1.373       .  S
C3484      C3485   1.401       .  A
C3485      H3489   1.083       .  S
C3486      O3490   1.372       .  S
O3488      H3492   0.992       .  S
C3493      C3494   1.414       .  A
C3493      C3498   1.409       .  A
C3494      C3495   1.413       .  A
C3494      H3499   1.083       .  S
C3495      C3496   1.408       .  A
C3496      C3497   1.413       .  A
C3497      C3498   1.410       .  A
C3497      H3501   1.083       .  S
C3498      O3502   1.372       .  S
O3500      H3504   0.992       .  S
O3502      H3503   0.993       .  S
C3505      C3506   1.416       .  A
C3505      C3510   1.426       .  A
C3506      C3507   1.426       .  A
C3506      H3511   1.081       .  S
C3507      C3508   1.419       .  A
C3507      O3512   1.371       .  S
C3508      C3509   1.394       .  A
C3509      C3510   1.390       .  A
C3509      H3513   1.080       .  S
O3512      H3516   0.993       .  S
O3514      H3515   0.993       .  S
C3517      C3522   1.412       .  A
C3518      C3519   1.392   1_455  A
C3518      H3523   1.082       .  S
C3519      C3520   1.428       .  A
C3519      O3524   1.370       .  S
C3521      C3522   1.422       .  A
C3521      H3525   1.078       .  S
C3522      O3526   1.371       .  S
O3524      H3528   0.991       .  S
O3526      H3527   0.991       .  S
C3529      C3530   1.409       .  A
C3529      C3534   1.411       .  A
C3530      C3531   1.405       .  A
C3530      H3535   1.084       .  S
C3531      C3532   1.409       .  A
C3531      O3536   1.376       .  S
C3532      C3533   1.407       .  A
C3533      C3534   1.414       .  A
C3533      H3537   1.081   1_554  S
C3534      O3538   1.375       .  S
O3536      H3540   0.992       .  S
O3538      H3539   0.992       .  S
C3541      C3542   1.415       .  A
C3541      C3546   1.435       .  A
C3542      C3543   1.415       .  A
C3542      H3547   1.074       .  S
C3543      C3544   1.404       .  A
C3543      O3548   1.371       .  S
C3544      C3545   1.390       .  A
C3545      C3546   1.400       .  A
C3546      O3550   1.370       .  S
O3548      H3552   0.991       .  S
C3553      C3554   1.408       .  A
C3553      C3558   1.388       .  A
C3554      H3559   1.083       .  S
C3555      C3556   1.423       .  A
C3555      O3560   1.364       .  S
C3556      C3557   1.412       .  A
C3557      H3561   1.076       .  S
C3558      O3562   1.373       .  S
C3565      C3566   1.408       .  A
C3565      C3570   1.411       .  A
C3566      C3567   1.416       .  A
C3566      H3571   1.082       .  S
C3567      C3568   1.418       .  A
C3567      O3572   1.368       .  S
C3568      C3569   1.404       .  A
C3569      C3570   1.403       .  A
C3569      H3573   1.080       .  S
C3570      O3574   1.371   1_554  S
O3572      H3576   0.992       .  S
O3574      H3575   0.990       .  S
C3577      C3578   1.401       .  A
C3577      C3582   1.406       .  A
C3578      C3579   1.398       .  A
C3578      H3583   1.081       .  S
C3579      C3580   1.415       .  A
C3579      O3584   1.367       .  S
C3580      C3581   1.407       .  A
C3581      C3582   1.402       .  A
C3581      H3585   1.065       .  S
C3582      O3586   1.369   1_554  S
O3584      H3588   0.991       .  S
O3586      H3587   0.991       .  S
C3589      C3590   1.413       .  A
C3590      C3591   1.417       .  A
C3590      H3595   1.082       .  S
C3591      O3596   1.370       .  S
C3592      C3593   1.409       .  A
C3593      C3594   1.412       .  A
C3593      H3597   1.064       .  S
C3594      O3598   1.375       .  S
O3596      H3600   0.993       .  S
O3598      H3599   0.990       .  S
C3601      C3602   1.405       .  A
C3601      C3606   1.396       .  A
C3602      C3603   1.400       .  A
C3602      H3607   1.081       .  S
C3603      C3604   1.418       .  A
C3603      O3608   1.369       .  S
C3604      C3605   1.395       .  A
C3605      C3606   1.388       .  A
C3605      H3609   1.077       .  S
C3606      O3610   1.364       .  S
O3608      H3612   0.992       .  S
O3610      H3611   0.992       .  S
C3613      C3614   1.402       .  A
C3613      C3618   1.400       .  A
C3614      H3619   1.084       .  S
C3615      C3616   1.402       .  A
C3615      O3620   1.372       .  S
C3616      C3617   1.396       .  A
C3617      H3621   1.082       .  S
C3618      O3622   1.373       .  S
O3620      H3624   0.991       .  S
O3622      H3623   0.990       .  S
C3625      C3626   1.406       .  A
C3625      C3630   1.401       .  A
C3626      C3627   1.414       .  A
C3626      H3631   1.083       .  S
C3627      C3628   1.424       .  A
C3627      O3632   1.366       .  S
C3628      C3629   1.427       .  A
C3629      C3630   1.405       .  A
C3630      O3634   1.371       .  S
O3632      H3636   0.992       .  S
C3637      C3638   1.410       .  A
C3637      C3642   1.415       .  A
C3638      C3639   1.392       .  A
C3638      H3643   1.083       .  S
C3639      C3640   1.405       .  A
C3639      O3644   1.370       .  S
C3640      C3641   1.413       .  A
C3641      C3642   1.411       .  A
C3641      H3645   1.074       .  S
C3642      O3646   1.370       .  S
O3644      H3648   0.993       .  S
O3646      H3647   0.992       .  S
C3649      C3650   1.411       .  A
C3649      C3654   1.403       .  A
C3650      H3655   1.080       .  S
C3651      C3652   1.417       .  A
C3651      O3656   1.378       .  S
C3652      C3653   1.417   1_655  A
C3653      H3657   1.080       .  S
C3654      O3658   1.373       .  S
O3656      H3660   0.992       .  S
O3658      H3659   0.992       .  S
C3661      C3662   1.408       .  A
C3661      C3666   1.419       .  A
C3662      C3663   1.410       .  A
C3662      H3667   1.075       .  S
C3663      C3664   1.410       .  A
C3663      O3668   1.374       .  S
C3664      C3665   1.400       .  A
C3665      C3666   1.409       .  A
C3665      H3669   1.075       .  S
C3666      O3670   1.366       .  S
O3668      H3672   0.993       .  S
O3670      H3671   0.992       .  S
