geometry optimzed in LAMMPS
_audit_creation_date              2020-11-30 
_audit_creation_method            'lammps2cif' 
_symmetry_space_group_name_H-M    'P1' 
_symmetry_Int_Tables_number       1 
_symmetry_cell_setting            triclinic 
loop_ 
_symmetry_equiv_pos_as_xyz 
  x,y,z 
_cell_length_a                    64.4006258 
_cell_length_b                    64.5545286355073 
_cell_length_c                    64.57514407668934 
_cell_angle_alpha                 89.98526436168885 
_cell_angle_beta                  89.96191022061367 
_cell_angle_gamma                 90.06013505778765 
loop_ 
_atom_site_label 
_atom_site_type_symbol 
_atom_site_fract_x 
_atom_site_fract_y 
_atom_site_fract_z 
_atom_site_charge 
N1          N  0.74861706  0.90705080  0.40302772    -0.01300
C2          C  0.76048305  0.88974017  0.40202742     0.01300
C3          C  0.75694270  0.87928555  0.38370098    -0.21600
C4          C  0.74234665  0.89055974  0.37299914    -0.21800
C5          C  0.73754547  0.90745537  0.38520239     0.01200
H6          H  0.76408408  0.86491010  0.37875448     0.15000
H7          H  0.73635420  0.88717221  0.35768268     0.15000
N8          N  0.75111139  0.90342285  0.58642521    -0.01300
C9          C  0.73960576  0.90240664  0.60393194     0.01300
C10         C  0.74368391  0.88421276  0.61444660    -0.21600
C11         C  0.75830576  0.87369292  0.60293845    -0.21800
C12         C  0.76252988  0.88586270  0.58583556     0.01200
H13         H  0.73694602  0.87926244  0.62901691     0.15000
H14         H  0.76474383  0.85858037  0.60637225     0.15000
N15         N  0.74950486  0.09110474  0.40599868    -0.01300
C16         C  0.76141558  0.10840848  0.40533883     0.01300
C17         C  0.75729890  0.11954597  0.38752654    -0.21600
C18         C  0.74225226  0.10872692  0.37690509    -0.21800
C19         C  0.73779035  0.09136791  0.38860409     0.01200
H20         H  0.76417052  0.13420565  0.38298309     0.15000
H21         H  0.73563297  0.11280718  0.36203393     0.15000
N22         N  0.74657193  0.08973386  0.58812225    -0.01300
C23         C  0.73708493  0.08824397  0.60679659     0.01300
C24         C  0.73889313  0.10672251  0.61747149    -0.21600
C25         C  0.74971686  0.12007052  0.60484374    -0.21800
C26         C  0.75430431  0.10921786  0.58697730     0.01200
H27         H  0.73285890  0.11015035  0.63277804     0.15000
H28         H  0.75406420  0.13590669  0.60842332     0.15000
O29         O  0.76644306  0.97617954  0.47420607    -0.70700
O30         O  0.76735440  0.01935675  0.51930150    -0.71700
O31         O  0.76721746  0.97540071  0.51826671    -0.60300
O32         O  0.76672818  0.02023326  0.47521452    -0.68700
O33         O  0.73237022  0.02001116  0.47510810    -0.68300
O34         O  0.73285993  0.97573207  0.51893164    -0.59500
O35         O  0.73289163  0.01992558  0.51884019    -0.72100
O36         O  0.73211379  0.97597632  0.47484208    -0.70800
Cu37       Cu  0.76812887  0.99777562  0.49672678     1.04600
Cu38       Cu  0.73137408  0.99788729  0.49697876     1.04300
C39         C  0.74916921  0.96919108  0.46734350     0.95500
C40         C  0.75014207  0.02663698  0.52593263     0.94600
C41         C  0.75010915  0.96846729  0.52551795     0.86800
C42         C  0.74953551  0.02726974  0.46828753     0.93000
N43         N  0.91076827  0.74369326  0.40706583    -0.01300
C44         C  0.91075105  0.73098188  0.39039309     0.01300
C45         C  0.89369443  0.73485105  0.37800607    -0.21600
C46         C  0.88273891  0.75049591  0.38746430    -0.21800
C47         C  0.89353230  0.75553437  0.40524502     0.01200
H48         H  0.88980776  0.72731356  0.36361360     0.15000
H49         H  0.86817538  0.75699080  0.38231979     0.15000
N50         N  0.90693281  0.75074459  0.58835508    -0.01300
C51         C  0.90756859  0.74194756  0.60739730     0.01300
C52         C  0.88844233  0.74351617  0.61699658    -0.21600
C53         C  0.87553388  0.75347954  0.60333110    -0.21800
C54         C  0.88727944  0.75777351  0.58593006     0.01200
H55         H  0.88426753  0.73775796  0.63223125     0.15000
H56         H  0.85934152  0.75735713  0.60586787     0.15000
N57         N  0.09324208  0.73378417  0.40716713    -0.01300
C58         C  0.09313541  0.72043189  0.39104992     0.01300
C59         C  0.11124086  0.72226198  0.37969243    -0.21600
C60         C  0.12293118  0.73736312  0.38923221    -0.21800
C61         C  0.11145418  0.74411395  0.40599095     0.01200
H62         H  0.11513707  0.71409757  0.36556937     0.15000
H63         H  0.13814916  0.74277001  0.38453640     0.15000
N64         N  0.09789026  0.74431426  0.58845136    -0.01300
C65         C  0.09699340  0.73696233  0.60807536     0.01300
C66         C  0.11617188  0.73870482  0.61752602    -0.21600
C67         C  0.12936146  0.74734942  0.60312665    -0.21800
C68         C  0.11770519  0.75070337  0.58547984     0.01200
H69         H  0.12017332  0.73399550  0.63315316     0.15000
H70         H  0.14557501  0.75132387  0.60546205     0.15000
O71         O  0.98116601  0.76257861  0.47718783    -0.70700
O72         O  0.02540124  0.76220644  0.52154550    -0.71700
O73         O  0.02545010  0.75995511  0.47726183    -0.60300
O74         O  0.98118940  0.76478266  0.52139767    -0.68700
O75         O  0.97922835  0.73048715  0.52266916    -0.68300
O76         O  0.02333312  0.72577291  0.47896094    -0.59500
O77         O  0.02377665  0.72787835  0.52274686    -0.72100
O78         O  0.97932794  0.72839389  0.47894870    -0.70800
Cu79       Cu  0.00339643  0.76359183  0.49931239     1.04600
Cu80       Cu  0.00135689  0.72698108  0.50094586     1.04300
C81         C  0.97316213  0.74548572  0.47108039     0.95500
C82         C  0.03171826  0.74494810  0.52892054     0.94600
C83         C  0.03134917  0.74207013  0.47106004     0.86800
C84         C  0.97297889  0.74828156  0.52869850     0.93000
N85         N  0.24429259  0.90546875  0.39644183    -0.01300
C86         C  0.23177662  0.88857429  0.39710671     0.01300
C87         C  0.23265105  0.87784416  0.37862099    -0.21600
C88         C  0.24605190  0.88859561  0.36599428    -0.21800
C89         C  0.25295271  0.90541487  0.37728563     0.01200
H90         H  0.22437719  0.86375087  0.37474770     0.15000
H91         H  0.24986933  0.88492613  0.35007662     0.15000
N92         N  0.24837178  0.90325360  0.58095537    -0.01300
C93         C  0.23676902  0.88578366  0.58032776     0.01300
C94         C  0.24134925  0.87304353  0.59687467    -0.21600
C95         C  0.25636649  0.88304686  0.60820213    -0.21800
C96         C  0.26038711  0.90145891  0.59806272     0.01200
H97         H  0.23491652  0.85783261  0.59998462     0.15000
H98         H  0.26337389  0.87766015  0.62246188     0.15000
N99         N  0.24767673  0.09111972  0.40042298    -0.01300
C100        C  0.24038077  0.11066256  0.40248720     0.01300
C101        C  0.24367148  0.12188326  0.38457199    -0.21600
C102        C  0.25323024  0.10870280  0.37086599    -0.21800
C103        C  0.25554531  0.08999582  0.38100675     0.01200
H104        H  0.23932214  0.13786667  0.38172190     0.15000
H105        H  0.25820271  0.11240600  0.35522653     0.15000
N106        N  0.24865651  0.08303482  0.58702991    -0.01300
C107        C  0.24102993  0.10256164  0.58692609     0.01300
C108        C  0.24431293  0.11204526  0.60581596    -0.21600
C109        C  0.25427034  0.09778723  0.61806721    -0.21800
C110        C  0.25682740  0.08021580  0.60612251     0.01200
H111        H  0.23985068  0.12764945  0.61020592     0.15000
H112        H  0.25949959  0.10010030  0.63387697     0.15000
O113        O  0.23022173  0.97391463  0.51141494    -0.70700
O114        O  0.22953583  0.01936032  0.46848602    -0.71700
O115        O  0.22979059  0.97538023  0.46716116    -0.60300
O116        O  0.22981662  0.01776510  0.51299948    -0.68700
O117        O  0.26427255  0.01842059  0.51236817    -0.68300
O118        O  0.26413925  0.97555269  0.46675068    -0.59500
O119        O  0.26400310  0.01984066  0.46848875    -0.72100
O120        O  0.26456534  0.97430910  0.51111439    -0.70800
Cu121      Cu  0.22865262  0.99660472  0.49000142     1.04600
Cu122      Cu  0.26543260  0.99701333  0.48964737     1.04300
C123        C  0.24752524  0.96705579  0.51828348     0.95500
C124        C  0.24669636  0.02676423  0.46177145     0.94600
C125        C  0.24689314  0.96872424  0.45962492     0.86800
C126        C  0.24705551  0.02467491  0.51997874     0.93000
N127        N  0.40529280  0.90242252  0.24626095    -0.01300
C128        C  0.40657248  0.88275803  0.23899128     0.01300
C129        C  0.38784561  0.87257935  0.24159183    -0.21600
C130        C  0.37454180  0.88642174  0.25067753    -0.21800
C131        C  0.38560933  0.90455856  0.25335986     0.01200
H132        H  0.38413735  0.85687359  0.23696030     0.15000
H133        H  0.35849555  0.88358705  0.25488788     0.15000
N134        N  0.59114759  0.90765981  0.24690156    -0.01300
C135        C  0.59020454  0.88857399  0.23826322     0.01300
C136        C  0.60927573  0.87885408  0.23952616    -0.21600
C137        C  0.62247193  0.89247757  0.24919414    -0.21800
C138        C  0.61093745  0.90996254  0.25360771     0.01200
H139        H  0.61315054  0.86348520  0.23397646     0.15000
H140        H  0.63862566  0.88976604  0.25302165     0.15000
N141        N  0.40700596  0.09080702  0.24416679    -0.01300
C142        C  0.40934547  0.11021535  0.23664243     0.01300
C143        C  0.39186860  0.12195185  0.24063822    -0.21600
C144        C  0.37822464  0.10923214  0.25099944    -0.21800
C145        C  0.38800285  0.09031302  0.25304696     0.01200
H146        H  0.38922596  0.13791529  0.23618645     0.15000
H147        H  0.36287070  0.11332577  0.25651878     0.15000
N148        N  0.58504246  0.09089255  0.25012167    -0.01300
C149        C  0.58313108  0.11029243  0.24242913     0.01300
C150        C  0.60108859  0.12153309  0.24566928    -0.21600
C151        C  0.61465451  0.10854456  0.25563954    -0.21800
C152        C  0.60439879  0.08991617  0.25818449     0.01200
H153        H  0.60421269  0.13725925  0.24064558     0.15000
H154        H  0.63033530  0.11223649  0.26049481     0.15000
O155        O  0.47293805  0.01779741  0.26324454    -0.70700
O156        O  0.51784624  0.97430111  0.26506576    -0.71700
O157        O  0.51679565  0.01862512  0.26490329    -0.60300
O158        O  0.47387103  0.97329929  0.26370247    -0.68700
O159        O  0.47461296  0.97344119  0.22933380    -0.68300
O160        O  0.51808642  0.01849557  0.23057350    -0.59500
O161        O  0.51903180  0.97462271  0.23070922    -0.72100
O162        O  0.47386866  0.01752353  0.22890066    -0.70800
Cu163      Cu  0.49528180  0.99598515  0.26542338     1.04600
Cu164      Cu  0.49641327  0.99597119  0.22868828     1.04300
C165        C  0.46657238  0.02475947  0.24581431     0.95500
C166        C  0.52565381  0.96779159  0.24806330     0.94600
C167        C  0.52420304  0.02574818  0.24796721     0.86800
C168        C  0.46750077  0.96620056  0.24636383     0.93000
N169        N  0.40985228  0.74873369  0.91053786    -0.01300
C170        C  0.39160544  0.73826513  0.91028192     0.01300
C171        C  0.37954997  0.74460271  0.89375975    -0.21600
C172        C  0.39072771  0.75960773  0.88351509    -0.21800
C173        C  0.40923129  0.76180140  0.89411465     0.01200
H174        H  0.36408171  0.73924772  0.88989402     0.15000
H175        H  0.38603535  0.76778876  0.86964792     0.15000
N176        N  0.59523125  0.75436727  0.91040390    -0.01300
C177        C  0.61458922  0.74647140  0.91217219     0.01300
C178        C  0.62577525  0.74973204  0.89422691    -0.21600
C179        C  0.61275787  0.75996401  0.88082762    -0.21800
C180        C  0.59413629  0.76264084  0.89115591     0.01200
H181        H  0.64153986  0.74474642  0.89107108     0.15000
H182        H  0.61647808  0.76499315  0.86523287     0.15000
N183        N  0.41236296  0.73582776  0.09461276    -0.01300
C184        C  0.39275137  0.72827798  0.09338948     0.01300
C185        C  0.38285365  0.73010559  0.11232226    -0.21600
C186        C  0.39683608  0.73913383  0.12562015    -0.21800
C187        C  0.41470720  0.74254070  0.11430814     0.01200
H188        H  0.36711205  0.72541764  0.11604238     0.15000
H189        H  0.39401314  0.74351876  0.14158008     0.15000
N190        N  0.59634753  0.74743718  0.09339950    -0.01300
C191        C  0.61610297  0.74049827  0.09159173     0.01300
C192        C  0.62698245  0.74364083  0.10975128    -0.21600
C193        C  0.61343505  0.75279922  0.12333291    -0.21800
C194        C  0.59485765  0.75499267  0.11289179     0.01200
H195        H  0.64296902  0.73937531  0.11286630     0.15000
H196        H  0.61680659  0.75760862  0.13907678     0.15000
O197        O  0.52664133  0.72782498  0.02313971    -0.70700
O198        O  0.48165250  0.72743781  0.97896806    -0.71700
O199        O  0.52585432  0.73002913  0.97855108    -0.60300
O200        O  0.48252161  0.72488789  0.02333962    -0.68700
O201        O  0.48007979  0.75915636  0.02465769    -0.68300
O202        O  0.52450780  0.76428261  0.98103332    -0.59500
O203        O  0.48047185  0.76162552  0.98083129    -0.72100
O204        O  0.52449698  0.76208141  0.02486514    -0.70800
Cu205      Cu  0.50426295  0.72631828  0.00093642     1.04600
Cu206      Cu  0.50230857  0.76292605  0.00292660     1.04300
C207        C  0.53260582  0.74508177  0.03093568     0.95500
C208        C  0.47397161  0.74469518  0.97288610     0.94600
C209        C  0.53202647  0.74794990  0.97275301     0.86800
C210        C  0.47434941  0.74124648  0.03091802     0.93000
N211        N  0.40617068  0.90544640  0.75179635    -0.01300
C212        C  0.40609692  0.88857328  0.76428166     0.01300
C213        C  0.38867757  0.87661132  0.76046013    -0.21600
C214        C  0.37777017  0.88641951  0.74495731    -0.21800
C215        C  0.38888312  0.90404069  0.73998117     0.01200
H216        H  0.38470520  0.86198463  0.76766527     0.15000
H217        H  0.36326920  0.88134031  0.73815414     0.15000
N218        N  0.59064660  0.90534917  0.74810649    -0.01300
C219        C  0.59087743  0.88826423  0.76021247     0.01300
C220        C  0.60817650  0.87633836  0.75602782    -0.21600
C221        C  0.61900810  0.88650496  0.74068806    -0.21800
C222        C  0.60786504  0.90421628  0.73615120     0.01200
H223        H  0.61215176  0.86158560  0.76295636     0.15000
H224        H  0.63356934  0.88168438  0.73380840     0.15000
N225        N  0.40633922  0.08898175  0.73561487    -0.01300
C226        C  0.40789517  0.10900598  0.74171654     0.01300
C227        C  0.39015338  0.11982723  0.73653302    -0.21600
C228        C  0.37713238  0.10598574  0.72698635    -0.21800
C229        C  0.38740207  0.08718479  0.72658117     0.01200
H230        H  0.38694438  0.13603182  0.73960207     0.15000
H231        H  0.36186589  0.10933416  0.72075517     0.15000
N232        N  0.58970603  0.08942494  0.73792210    -0.01300
C233        C  0.58808574  0.10912287  0.74486320     0.01300
C234        C  0.60645044  0.11973255  0.74155896    -0.21600
C235        C  0.61987939  0.10600493  0.73233736    -0.21800
C236        C  0.60914025  0.08759454  0.73021907     0.01200
H237        H  0.60977065  0.13569197  0.74563521     0.15000
H238        H  0.63567032  0.10917282  0.72741911     0.15000
O239        O  0.47629818  0.02078678  0.75998411    -0.70700
O240        O  0.52048717  0.97647905  0.76261006    -0.71700
O241        O  0.52082285  0.02032473  0.75941161    -0.60300
O242        O  0.47620919  0.97695980  0.76336198    -0.68700
O243        O  0.47571069  0.97470173  0.72917487    -0.68300
O244        O  0.52016584  0.01820748  0.72510120    -0.59500
O245        O  0.51991351  0.97424734  0.72843021    -0.72100
O246        O  0.47633014  0.01863169  0.72566575    -0.70800
Cu247      Cu  0.49847567  0.99874362  0.76254442     1.04600
Cu248      Cu  0.49800969  0.99632697  0.72592564     1.04300
C249        C  0.46940686  0.02666088  0.74236197     0.95500
C250        C  0.52725212  0.96834758  0.74585014     0.94600
C251        C  0.52749621  0.02611899  0.74168655     0.86800
C252        C  0.46882759  0.96893763  0.74684648     0.93000
N253        N  0.40482236  0.24928721  0.89451815    -0.01300
C254        C  0.38566573  0.25764954  0.89636845     0.01300
C255        C  0.37479366  0.25581813  0.87803310    -0.21600
C256        C  0.38780809  0.24607490  0.86429612    -0.21800
C257        C  0.40605392  0.24218426  0.87484125     0.01200
H258        H  0.35908742  0.26106985  0.87500223     0.15000
H259        H  0.38425960  0.24195348  0.84839192     0.15000
N260        N  0.58875981  0.25170572  0.89393056    -0.01300
C261        C  0.58656908  0.24441187  0.87438259     0.01300
C262        C  0.60431905  0.24806179  0.86294411    -0.21600
C263        C  0.61805117  0.25784970  0.87594490    -0.21800
C264        C  0.60812511  0.25994579  0.89481424     0.01200
H265        H  0.60708477  0.24372123  0.84697067     0.15000
H266        H  0.63359398  0.26300529  0.87204959     0.15000
N267        N  0.40413690  0.23784835  0.07817527    -0.01300
C268        C  0.40511703  0.22617681  0.09554702     0.01300
C269        C  0.38731170  0.22852219  0.10725081    -0.21600
C270        C  0.37486906  0.24221060  0.09669852    -0.21800
C271        C  0.38558155  0.24762707  0.07896395     0.01200
H272        H  0.38408139  0.22160759  0.12219617     0.15000
H273        H  0.35965396  0.24759364  0.10139023     0.15000
N274        N  0.58875599  0.24525522  0.07910932    -0.01300
C275        C  0.58937922  0.23400465  0.09676445     0.01300
C276        C  0.60702942  0.23866790  0.10799429    -0.21600
C277        C  0.61769832  0.25335792  0.09678077    -0.21800
C278        C  0.60610738  0.25707138  0.07918364     0.01200
H279        H  0.61135614  0.23248064  0.12296050     0.15000
H280        H  0.63249220  0.26026587  0.10079392     0.15000
O281        O  0.47495299  0.26370493  0.96453661    -0.70700
O282        O  0.51827178  0.26238089  0.00935997    -0.71700
O283        O  0.51895527  0.26439991  0.96512753    -0.60300
O284        O  0.47398170  0.26145979  0.00875385    -0.68700
O285        O  0.47485822  0.22724807  0.00717754    -0.68300
O286        O  0.52004730  0.23006457  0.96400135    -0.59500
O287        O  0.51908446  0.22815089  0.00804079    -0.72100
O288        O  0.47541765  0.22935977  0.96321255    -0.70800
Cu289      Cu  0.49653426  0.26416481  0.98701676     1.04600
Cu290      Cu  0.49737929  0.22752094  0.98553201     1.04300
C291        C  0.46827576  0.24672581  0.95686343     0.95500
C292        C  0.52558058  0.24515955  0.01586960     0.94600
C293        C  0.52656058  0.24768681  0.95768799     0.86800
C294        C  0.46723377  0.24382804  0.01487209     0.93000
N295        N  0.24605136  0.40405260  0.90175307    -0.01300
C296        C  0.23840003  0.40629550  0.88235128     0.01300
C297        C  0.24054199  0.38813704  0.87126773    -0.21600
C298        C  0.24979531  0.37414557  0.88430747    -0.21800
C299        C  0.25307325  0.38427966  0.90289430     0.01200
H300        H  0.23582133  0.38538313  0.85539239     0.15000
H301        H  0.25405508  0.35835221  0.88050946     0.15000
N302        N  0.24914156  0.58721398  0.90726052    -0.01300
C303        C  0.23748561  0.58844538  0.88987858     0.01300
C304        C  0.24109931  0.60692851  0.87969430    -0.21600
C305        C  0.25557090  0.61749025  0.89124250    -0.21800
C306        C  0.26021246  0.60500636  0.90797018     0.01200
H307        H  0.23440165  0.61188554  0.86515237     0.15000
H308        H  0.26183426  0.63271549  0.88796806     0.15000
N309        N  0.24781032  0.39831569  0.08712372    -0.01300
C310        C  0.24036543  0.40049094  0.10657710     0.01300
C311        C  0.24394061  0.38289765  0.11816583    -0.21600
C312        C  0.25391063  0.36921987  0.10533228    -0.21800
C313        C  0.25613328  0.37904109  0.08640955     0.01200
H314        H  0.23958698  0.38026981  0.13418930     0.15000
H315        H  0.25926377  0.35383175  0.10944034     0.15000
N316        N  0.25177757  0.58331795  0.08966164    -0.01300
C317        C  0.24324858  0.58214897  0.10885914     0.01300
C318        C  0.24631022  0.60053645  0.11943940    -0.21600
C319        C  0.25702527  0.61344187  0.10637733    -0.21800
C320        C  0.26021195  0.60250675  0.08828555     0.01200
H321        H  0.24100174  0.60429380  0.13492040     0.15000
H322        H  0.26201232  0.62913435  0.10970241     0.15000
O323        O  0.23101382  0.51438469  0.01948818    -0.70700
O324        O  0.23024194  0.47097091  0.97454416    -0.71700
O325        O  0.23016410  0.46976169  0.01849966    -0.60300
O326        O  0.23104102  0.51520148  0.97543914    -0.68700
O327        O  0.26539997  0.51507919  0.97578568    -0.68300
O328        O  0.26461663  0.46922990  0.01824773    -0.59500
O329        O  0.26469983  0.47113615  0.97387170    -0.72100
O330        O  0.26545214  0.51313373  0.01992587    -0.70800
Cu331      Cu  0.22940710  0.49259711  0.99701564     1.04600
Cu332      Cu  0.26621941  0.49210365  0.99696648     1.04300
C333        C  0.24841154  0.52058461  0.02677135     0.95500
C334        C  0.24735906  0.46439724  0.96698588     0.94600
C335        C  0.24731652  0.46229697  0.02510610     0.86800
C336        C  0.24833147  0.52237871  0.96878773     0.93000
N337        N  0.91507233  0.40769845  0.75232210    -0.01300
C338        C  0.89797085  0.40820374  0.76456361     0.01300
C339        C  0.88591112  0.39077787  0.76144664    -0.21600
C340        C  0.89589097  0.37909923  0.74669666    -0.21800
C341        C  0.91372401  0.38979240  0.74140132     0.01200
H342        H  0.87120105  0.38719883  0.76877862     0.15000
H343        H  0.89089382  0.36422033  0.74074407     0.15000
N344        N  0.91565139  0.59344128  0.75427962    -0.01300
C345        C  0.89940690  0.59350887  0.76765125     0.01300
C346        C  0.88794022  0.61145072  0.76555960    -0.21600
C347        C  0.89738840  0.62288523  0.75026736    -0.21800
C348        C  0.91428038  0.61149808  0.74363242     0.01200
H349        H  0.87387631  0.61548204  0.77383381     0.15000
H350        H  0.89271853  0.63805190  0.74485192     0.15000
N351        N  0.10010728  0.40949456  0.73546905    -0.01300
C352        C  0.12019012  0.41156393  0.74132824     0.01300
C353        C  0.13143091  0.39406676  0.73630024    -0.21600
C354        C  0.11773756  0.38059498  0.72716250    -0.23000
C355        C  0.09867067  0.39042119  0.72685984     0.01200
H356        H  0.14765984  0.39112297  0.73965605     0.15000
H357        H  0.12123690  0.36516036  0.72152309     0.15000
N358        N  0.09776313  0.59408662  0.73974197    -0.01300
C359        C  0.11708421  0.59279284  0.74783980     0.01300
C360        C  0.12754900  0.61134620  0.74548871    -0.21600
C361        C  0.11405738  0.62465781  0.73577357    -0.21800
C362        C  0.09598798  0.61362181  0.73243319     0.01200
H363        H  0.14310510  0.61495050  0.75079811     0.15000
H364        H  0.11702779  0.64067875  0.73167518     0.15000
O365        O  0.02834569  0.47868831  0.72590596    -0.70700
O366        O  0.98369095  0.52246321  0.72963346    -0.71700
O367        O  0.02794317  0.52268330  0.72588985    -0.60300
O368        O  0.98409394  0.47808926  0.72962942    -0.68700
O369        O  0.98678450  0.47799260  0.76376259    -0.68300
O370        O  0.03045227  0.52267641  0.76014605    -0.59500
O371        O  0.98651204  0.52218120  0.76374985    -0.72100
O372        O  0.03077053  0.47814753  0.76018829    -0.70800
Cu373      Cu  0.00589937  0.50045959  0.72658207     1.04600
Cu374      Cu  0.00874341  0.50024494  0.76313149     1.04300
C375        C  0.03653680  0.47151400  0.74244300     0.95500
C376        C  0.97810598  0.52942060  0.74733813     0.94600
C377        C  0.03601901  0.52980884  0.74250622     0.86800
C378        C  0.97848325  0.47089615  0.74723915     0.93000
N379        N  0.75869045  0.40497130  0.90780406    -0.01300
C380        C  0.76808330  0.40679623  0.88917043     0.01300
C381        C  0.76660274  0.38856507  0.87808857    -0.21600
C382        C  0.75594426  0.37490257  0.89040731    -0.21800
C383        C  0.75125060  0.38537022  0.90849145     0.01200
H384        H  0.77266845  0.38555525  0.86272138     0.15000
H385        H  0.75165840  0.35915554  0.88643799     0.15000
N386        N  0.75379386  0.58935507  0.90994472    -0.01300
C387        C  0.74233382  0.60692692  0.90915332     0.01300
C388        C  0.74649492  0.61782340  0.89119305    -0.21600
C389        C  0.76106730  0.60656910  0.88049888    -0.21800
C390        C  0.76522882  0.58926841  0.89234749     0.01200
H391        H  0.73991804  0.63254926  0.88657989     0.15000
H392        H  0.76764884  0.61036791  0.86552579     0.15000
N393        N  0.74688572  0.39888803  0.08810708    -0.01300
C394        C  0.75526834  0.39910380  0.10730528     0.01300
C395        C  0.75279587  0.38009547  0.11682510    -0.21600
C396        C  0.74262343  0.36762893  0.10287959    -0.21800
C397        C  0.73912977  0.37959357  0.08548877     0.01200
H398        H  0.75798748  0.37575794  0.13219827     0.15000
H399        H  0.73804693  0.35161603  0.10521954     0.15000
N400        N  0.74536028  0.58600788  0.09369460    -0.01300
C401        C  0.73878389  0.60582625  0.09181452     0.01300
C402        C  0.74196523  0.61655429  0.11004875    -0.21600
C403        C  0.75082854  0.60280461  0.12368932    -0.21800
C404        C  0.75286332  0.58426362  0.11319451     0.01200
H405        H  0.73822178  0.63264030  0.11307528     0.15000
H406        H  0.75582156  0.60611379  0.13937128     0.15000
O407        O  0.76477579  0.51697323  0.02420467    -0.70700
O408        O  0.76815267  0.47407223  0.97927702    -0.71700
O409        O  0.76746203  0.51827206  0.98028424    -0.60300
O410        O  0.76536409  0.47258071  0.02290789    -0.68700
O411        O  0.73097501  0.47201125  0.02087825    -0.68300
O412        O  0.73315516  0.51821541  0.97863853    -0.59500
O413        O  0.73380168  0.47407396  0.97653026    -0.72100
O414        O  0.73035434  0.51607975  0.02291092    -0.70800
Cu415      Cu  0.76759769  0.49551044  0.00176727     1.04600
Cu416      Cu  0.73085489  0.49508446  0.99966676     1.04300
C417        C  0.74712790  0.52330993  0.03066658     0.95500
C418        C  0.75156926  0.46729986  0.97080959     0.94600
C419        C  0.75064419  0.52549357  0.97262338     0.86800
C420        C  0.74789170  0.46497153  0.02848382     0.93000
N421        N  0.90334928  0.39815211  0.24833688    -0.01300
C422        C  0.88380332  0.39796258  0.24050393     0.01300
C423        C  0.87452437  0.37896154  0.24404527    -0.21600
C424        C  0.88886435  0.36702715  0.25430798    -0.21800
C425        C  0.90637327  0.37917353  0.25681413     0.01200
H426        H  0.85907408  0.37420290  0.23941542     0.15000
H427        H  0.88667434  0.35124835  0.25961282     0.15000
N428        N  0.90277882  0.58283330  0.24942274    -0.01300
C429        C  0.88320229  0.58212072  0.24168903     0.01300
C430        C  0.87324479  0.60083917  0.24480912    -0.21600
C431        C  0.88712587  0.61353712  0.25472590    -0.21800
C432        C  0.90503125  0.60211722  0.25739090     0.01200
H433        H  0.85759589  0.60489878  0.24013144     0.15000
H434        H  0.88438535  0.62933980  0.25974175     0.15000
N435        N  0.08908666  0.40019752  0.24296851    -0.01300
C436        C  0.10647792  0.39929091  0.23127793     0.01300
C437        C  0.11768122  0.38158114  0.23565516    -0.21600
C438        C  0.10673972  0.37112872  0.25067010    -0.21800
C439        C  0.08938601  0.38295472  0.25482753     0.01200
H440        H  0.13256118  0.37716285  0.22918159     0.15000
H441        H  0.11089053  0.35647644  0.25771420     0.15000
N442        N  0.08721258  0.58241139  0.24374051    -0.01300
C443        C  0.08601169  0.60150501  0.25233170     0.01300
C444        C  0.10424725  0.61236031  0.24910548    -0.21600
C445        C  0.11722977  0.59941438  0.23832631    -0.21800
C446        C  0.10637168  0.58122044  0.23523656     0.01200
H447        H  0.10788637  0.62786003  0.25449677     0.15000
H448        H  0.13295693  0.60282736  0.23334075     0.15000
O449        O  0.97259709  0.46866357  0.26201903    -0.70700
O450        O  0.01740894  0.51236564  0.26138036    -0.71700
O451        O  0.97284663  0.51237322  0.26292677    -0.60300
O452        O  0.01708237  0.46840091  0.26066375    -0.68700
O453        O  0.01677932  0.46922258  0.22641908    -0.68300
O454        O  0.97183248  0.51296567  0.22856369    -0.59500
O455        O  0.01593663  0.51350798  0.22707069    -0.72100
O456        O  0.97236858  0.46861770  0.22763944    -0.70800
Cu457      Cu  0.99503265  0.49041740  0.26292153     1.04600
Cu458      Cu  0.99417450  0.49107509  0.22621918     1.04300
C459        C  0.96540536  0.46181822  0.24489642     0.95500
C460        C  0.02367588  0.51988421  0.24413738     0.94600
C461        C  0.96530552  0.51952428  0.24609305     0.86800
C462        C  0.02419187  0.46197393  0.24332227     0.93000
N463        N  0.91021680  0.24668996  0.40800377    -0.01300
C464        C  0.91007168  0.25782790  0.39027825     0.01300
C465        C  0.89243378  0.25360809  0.37885878    -0.21600
C466        C  0.88127455  0.23923778  0.39002260    -0.21800
C467        C  0.89256556  0.23535201  0.40778626     0.01200
H468        H  0.88832491  0.26003204  0.36392516     0.15000
H469        H  0.86634448  0.23269172  0.38588850     0.15000
N470        N  0.91039734  0.24256516  0.59344101    -0.01300
C471        C  0.91249795  0.24919099  0.61322797     0.01300
C472        C  0.89494857  0.24450774  0.62462105    -0.21600
C473        C  0.88147896  0.23473097  0.61133794    -0.21800
C474        C  0.89136353  0.23368125  0.59236504     0.01200
H475        H  0.89209886  0.24821105  0.64074478     0.15000
H476        H  0.86617046  0.22884144  0.61512746     0.15000
N477        N  0.09623116  0.25548213  0.41117358    -0.01300
C478        C  0.09679409  0.26785404  0.39426470     0.01300
C479        C  0.11569732  0.26602760  0.38427771    -0.21600
C480        C  0.12716590  0.25196489  0.39550059    -0.21800
C481        C  0.11479490  0.24579636  0.41185393     0.01200
H482        H  0.12038577  0.27362849  0.37005759     0.15000
H483        H  0.14284393  0.24685788  0.39217572     0.15000
N484        N  0.09351595  0.24443436  0.59325747    -0.01300
C485        C  0.09201776  0.25162413  0.61292323     0.01300
C486        C  0.10990922  0.24739127  0.62389744    -0.21600
C487        C  0.12302464  0.23735748  0.61049582    -0.21800
C488        C  0.11260283  0.23569249  0.59186482     0.01200
H489        H  0.11320784  0.25156358  0.63983599     0.15000
H490        H  0.13850745  0.23174694  0.61396730     0.15000
O491        O  0.98015929  0.22990968  0.52255219    -0.70700
O492        O  0.02492672  0.23249525  0.47885911    -0.71700
O493        O  0.02408760  0.23112377  0.52301827    -0.60300
O494        O  0.98069058  0.23089172  0.47835082    -0.68700
O495        O  0.97953355  0.26512177  0.47902823    -0.68300
O496        O  0.02337904  0.26550326  0.52379852    -0.59500
O497        O  0.02369068  0.26674086  0.47986570    -0.72100
O498        O  0.97875338  0.26425841  0.52305620    -0.70800
Cu499      Cu  0.00249187  0.22992577  0.50064351     1.04600
Cu500      Cu  0.00129001  0.26659953  0.50147543     1.04300
C501        C  0.97243704  0.24669648  0.52969299     0.95500
C502        C  0.03149100  0.25010821  0.47250798     0.94600
C503        C  0.03062453  0.24827504  0.53039816     0.86800
C504        C  0.97316137  0.24789584  0.47155752     0.93000
O505        O  0.97794811  0.35377265  0.32383188    -0.70700
O506        O  0.02283241  0.32746771  0.35850116    -0.71700
O507        O  0.02174766  0.35578072  0.32489692    -0.60300
O508        O  0.97862188  0.32531541  0.35787395    -0.68700
O509        O  0.98101731  0.29877077  0.33611962    -0.68300
O510        O  0.02242726  0.32959459  0.30256366    -0.59500
O511        O  0.02424914  0.30136326  0.33613465    -0.72100
O512        O  0.97926098  0.32702077  0.30246310    -0.70800
Cu513      Cu  0.00020115  0.34152204  0.34212675     1.04600
Cu514      Cu  0.00178876  0.31329903  0.31860277     1.04300
C515        C  0.97183858  0.34470085  0.30730192     0.95500
C516        C  0.03052768  0.31017249  0.35267364     0.94600
C517        C  0.02843151  0.34755861  0.30820572     0.86800
C518        C  0.97334733  0.30704897  0.35233047     0.93000
O519        O  0.80043219  0.16590866  0.51787798    -0.70700
O520        O  0.83545864  0.19553935  0.47667973    -0.71700
O521        O  0.80331605  0.16525613  0.47457780    -0.60300
O522        O  0.83262628  0.19587327  0.51984071    -0.68700
O523        O  0.85613648  0.17096643  0.52157746    -0.68300
O524        O  0.82694448  0.14023095  0.47592654    -0.59500
O525        O  0.85895873  0.17038192  0.47786773    -0.72100
O526        O  0.82353564  0.14064878  0.51978751    -0.70800
Cu527      Cu  0.81716649  0.18148371  0.49717173     1.04600
Cu528      Cu  0.84223586  0.15464928  0.49889173     1.04300
C529        C  0.80612957  0.14848915  0.52525493     0.95500
C530        C  0.85275530  0.18784054  0.47093073     0.94600
C531        C  0.81033641  0.14784934  0.46830992     0.86800
C532        C  0.84929754  0.18854294  0.52762800     0.93000
O533        O  0.17177200  0.19636868  0.52094575    -0.70700
O534        O  0.20130341  0.16728293  0.47525728    -0.71700
O535        O  0.17050937  0.19874055  0.47788882    -0.60300
O536        O  0.20241419  0.16499940  0.51856757    -0.68700
O537        O  0.17771032  0.14116794  0.51845947    -0.68300
O538        O  0.14613043  0.17444021  0.47638859    -0.59500
O539        O  0.17720070  0.14283484  0.47472845    -0.72100
O540        O  0.14667454  0.17296359  0.52015538    -0.70800
Cu541      Cu  0.18733487  0.18262235  0.49816465     1.04600
Cu542      Cu  0.16104406  0.15697158  0.49741408     1.04300
C543        C  0.15427898  0.18975039  0.52747647     0.95500
C544        C  0.19435791  0.15023414  0.46801242     0.94600
C545        C  0.15313828  0.19216623  0.47101394     0.86800
C546        C  0.19531122  0.14765692  0.52491556     0.93000
O547        O  0.79283506  0.46847398  0.16929158    -0.70700
O548        O  0.82321228  0.51169079  0.20161247    -0.71700
O549        O  0.79245953  0.51194879  0.17033289    -0.60300
O550        O  0.82330849  0.46816167  0.20087001    -0.68700
O551        O  0.84814518  0.46864503  0.17719962    -0.68300
O552        O  0.81673430  0.51289985  0.14611018    -0.59500
O553        O  0.84779487  0.51252442  0.17767465    -0.72100
O554        O  0.81740378  0.46903654  0.14533711    -0.70800
Cu555      Cu  0.80713865  0.49004685  0.18632167     1.04600
Cu556      Cu  0.83341351  0.49079742  0.16072725     1.04300
C557        C  0.80010110  0.46204227  0.15204426     0.95500
C558        C  0.84044019  0.51887732  0.19491155     0.94600
C559        C  0.79936968  0.51928226  0.15332457     0.86800
C560        C  0.84068530  0.46149935  0.19413361     0.93000
O561        O  0.19856193  0.51230599  0.16593990    -0.70700
O562        O  0.16502927  0.46858997  0.19344606    -0.71700
O563        O  0.19764717  0.46924219  0.16418569    -0.60300
O564        O  0.16590378  0.51162250  0.19528425    -0.68700
O565        O  0.14236214  0.51281501  0.17037504    -0.68300
O566        O  0.17526706  0.47076061  0.13821419    -0.59500
O567        O  0.14228770  0.46907845  0.16759185    -0.72100
O568        O  0.17547505  0.51423973  0.14062879    -0.70800
Cu569      Cu  0.18253995  0.49039066  0.18055646     1.04600
Cu570      Cu  0.15798600  0.49180513  0.15327785     1.04300
C571        C  0.19267859  0.51993277  0.14869128     0.95500
C572        C  0.14830708  0.46210573  0.18508810     0.94600
C573        C  0.19196495  0.46359659  0.14613092     0.86800
C574        C  0.14883215  0.51863490  0.18817831     0.93000
O575        O  0.66816330  0.29633077  0.96704951    -0.70700
O576        O  0.69717851  0.32419036  0.01388727    -0.71700
O577        O  0.66423205  0.29528597  0.01019388    -0.60300
O578        O  0.70115531  0.32528722  0.97103759    -0.68700
O579        O  0.67861179  0.35106685  0.96919352    -0.68300
O580        O  0.64206049  0.32162150  0.00991572    -0.59500
O581        O  0.67533778  0.35062166  0.01248874    -0.72100
O582        O  0.64516245  0.32173272  0.96604284    -0.70800
Cu583      Cu  0.68340435  0.30939171  0.99056305     1.04600
Cu584      Cu  0.65942600  0.33716088  0.98930383     1.04300
C585        C  0.65172634  0.30425000  0.95937799     0.95500
C586        C  0.69146101  0.34204221  0.02018553     0.94600
C587        C  0.64739942  0.30368700  0.01632637     0.86800
C588        C  0.69616374  0.34320755  0.96438890     0.93000
O589        O  0.83260885  0.47837050  0.86018904    -0.70700
O590        O  0.86638100  0.52195356  0.83141140    -0.71700
O591        O  0.83347986  0.52197631  0.86080084    -0.60300
O592        O  0.86560717  0.47786909  0.83077735    -0.68700
O593        O  0.84298363  0.47935346  0.80487656    -0.68300
O594        O  0.81021922  0.52198995  0.83542789    -0.59500
O595        O  0.84314071  0.52260045  0.80600201    -0.72100
O596        O  0.81021740  0.47884757  0.83420433    -0.70800
Cu597      Cu  0.85037769  0.50001539  0.84669960     1.04600
Cu598      Cu  0.82587223  0.50073847  0.81925310     1.04300
C599        C  0.81581030  0.47194833  0.85185073     0.95500
C600        C  0.86008235  0.52897502  0.81401801     0.94600
C601        C  0.81642549  0.52843659  0.85306132     0.86800
C602        C  0.85948170  0.47193704  0.81290888     0.93000
O603        O  0.02305676  0.29683880  0.67016687    -0.70700
O604        O  0.98016326  0.33038929  0.69930789    -0.71700
O605        O  0.97963822  0.29655828  0.67085507    -0.60300
O606        O  0.02348822  0.33036951  0.69814987    -0.68700
O607        O  0.02277428  0.35288677  0.67229532    -0.68300
O608        O  0.97941220  0.31819370  0.64425928    -0.59500
O609        O  0.97871217  0.35220644  0.67274246    -0.72100
O610        O  0.02313383  0.31895655  0.64398425    -0.70800
Cu611      Cu  0.00154298  0.31282099  0.68551112     1.04600
Cu612      Cu  0.00093822  0.33638655  0.65738925     1.04300
C613        C  0.02982204  0.30232394  0.65241360     0.95500
C614        C  0.97297961  0.34676658  0.69090517     0.94600
C615        C  0.97309243  0.30151125  0.65286163     0.86800
C616        C  0.03011936  0.34697408  0.68969809     0.93000
O617        O  0.20374705  0.47919361  0.82306848    -0.70700
O618        O  0.17508640  0.52356897  0.79124906    -0.71700
O619        O  0.20282568  0.52233739  0.82552602    -0.60300
O620        O  0.17597521  0.48025148  0.78903454    -0.68700
O621        O  0.14958532  0.47809486  0.81089165    -0.68300
O622        O  0.17563639  0.52140614  0.84669278    -0.59500
O623        O  0.14800836  0.52159547  0.81228909    -0.72100
O624        O  0.17756139  0.47773824  0.84521419    -0.70800
Cu625      Cu  0.19031016  0.50141568  0.80647919     1.04600
Cu626      Cu  0.16174424  0.49964285  0.82953884     1.04300
C627        C  0.19557080  0.47170322  0.83944542     0.95500
C628        C  0.15681777  0.52931877  0.79630573     0.94600
C629        C  0.19363822  0.52824363  0.84202274     0.86800
C630        C  0.15836226  0.47263848  0.79401819     0.93000
O631        O  0.31855833  0.34601257  0.01459566    -0.70700
O632        O  0.35037948  0.31733409  0.96969803    -0.71700
O633        O  0.31802216  0.34768038  0.97102899    -0.60300
O634        O  0.35054963  0.31594525  0.01348701    -0.68700
O635        O  0.32724982  0.29057350  0.01196123    -0.68300
O636        O  0.29427257  0.32288978  0.97104462    -0.59500
O637        O  0.32629974  0.29287288  0.96878084    -0.72100
O638        O  0.29532528  0.32071631  0.01438325    -0.70800
Cu639      Cu  0.33522675  0.33263490  0.99220114     1.04600
Cu640      Cu  0.30997792  0.30592244  0.99150704     1.04300
C641        C  0.30181459  0.33798535  0.02153715     0.95500
C642        C  0.34350917  0.30028760  0.96231748     0.94600
C643        C  0.30065655  0.34049469  0.96466679     0.86800
C644        C  0.34411112  0.29808728  0.01909717     0.93000
O645        O  0.47485041  0.17735264  0.83918624    -0.70700
O646        O  0.51882917  0.14594751  0.80831697    -0.71700
O647        O  0.51866154  0.17773300  0.83954122    -0.60300
O648        O  0.47517111  0.14571791  0.80794531    -0.68700
O649        O  0.47550366  0.17005687  0.78383438    -0.68300
O650        O  0.51855687  0.20157609  0.81491063    -0.59500
O651        O  0.51875668  0.17012252  0.78403214    -0.72100
O652        O  0.47517028  0.20131663  0.81469224    -0.70800
Cu653      Cu  0.49688809  0.16082572  0.82464029     1.04600
Cu654      Cu  0.49701099  0.18656690  0.79856991     1.04300
C655        C  0.46834426  0.19461416  0.83200503     0.95500
C656        C  0.52529028  0.15276639  0.79088303     0.94600
C657        C  0.52506886  0.19509696  0.83241397     0.86800
C658        C  0.46886654  0.15265829  0.79049685     0.93000
O659        O  0.51995662  0.16845508  0.19129771    -0.70700
O660        O  0.47694153  0.19500592  0.15549575    -0.71700
O661        O  0.47672935  0.16751891  0.19014918    -0.60300
O662        O  0.52032526  0.19608513  0.15663704    -0.68700
O663        O  0.52184122  0.16913078  0.13534358    -0.68300
O664        O  0.47780874  0.14057814  0.16892363    -0.59500
O665        O  0.47789483  0.16795577  0.13428669    -0.72100
O666        O  0.52110359  0.14159269  0.16999723    -0.70800
Cu667      Cu  0.49847826  0.18272851  0.17409782     1.04600
Cu668      Cu  0.49973600  0.15391640  0.15133636     1.04300
C669        C  0.52664443  0.15037721  0.18682226     0.95500
C670        C  0.47075091  0.18574896  0.13914722     0.94600
C671        C  0.47083729  0.14925892  0.18528854     0.86800
C672        C  0.52766860  0.18734520  0.14048644     0.93000
O673        O  0.33181633  0.01101885  0.69096115    -0.70700
O674        O  0.30305828  0.96601785  0.65980066    -0.71700
O675        O  0.33428339  0.96787532  0.69103918    -0.60300
O676        O  0.30068852  0.00903004  0.66040067    -0.68700
O677        O  0.32439859  0.01086522  0.63566254    -0.68300
O678        O  0.35870463  0.96853218  0.66671893    -0.59500
O679        O  0.32733916  0.96710969  0.63537117    -0.72100
O680        O  0.35610447  0.01242032  0.66670696    -0.70800
Cu681      Cu  0.31668982  0.98835472  0.67636433     1.04600
Cu682      Cu  0.34255358  0.98975125  0.65022790     1.04300
C683        C  0.34856328  0.01887237  0.68384040     0.95500
C684        C  0.31020789  0.96000649  0.64235747     0.94600
C685        C  0.35189349  0.96206208  0.68417289     0.86800
C686        C  0.30683867  0.01640278  0.64314989     0.93000
O687        O  0.47796363  0.85949912  0.83062034    -0.70700
O688        O  0.52288125  0.82691288  0.85924252    -0.71700
O689        O  0.52212385  0.85863247  0.82853346    -0.60300
O690        O  0.47890916  0.82806215  0.86141950    -0.68700
O691        O  0.47821058  0.80356751  0.83726368    -0.68300
O692        O  0.51981528  0.83495657  0.80370200    -0.59500
O693        O  0.52166056  0.80345750  0.83429127    -0.72100
O694        O  0.47647038  0.83509165  0.80639033    -0.70800
Cu695      Cu  0.50054029  0.84414981  0.84583495     1.04600
Cu696      Cu  0.49896077  0.81845316  0.81958254     1.04300
C697        C  0.47034724  0.85235765  0.81380418     0.95500
C698        C  0.52927285  0.80988857  0.85136594     0.94600
C699        C  0.52752064  0.85174816  0.81077822     0.86800
C700        C  0.47207886  0.81077696  0.85463528     0.93000
O701        O  0.32778712  0.63704326  0.97603345    -0.70700
O702        O  0.35766939  0.66870436  0.02032199    -0.71700
O703        O  0.32646094  0.63707050  0.01978072    -0.60300
O704        O  0.35875889  0.66860008  0.97646844    -0.68700
O705        O  0.33439787  0.69295283  0.97656434    -0.68300
O706        O  0.30244220  0.66153161  0.01915275    -0.59500
O707        O  0.33329317  0.69284730  0.01992907    -0.72100
O708        O  0.30332263  0.66127683  0.97596488    -0.70800
Cu709      Cu  0.34357492  0.65201215  0.99817482     1.04600
Cu710      Cu  0.31754498  0.67797292  0.99783669     1.04300
C711        C  0.31044624  0.64399298  0.96948537     0.95500
C712        C  0.35040997  0.68587022  0.02701588     0.94600
C713        C  0.30900787  0.64419275  0.02600880     0.86800
C714        C  0.35174814  0.68596815  0.97006676     0.93000
O715        O  0.52395075  0.79370958  0.17225681    -0.70700
O716        O  0.47771676  0.82283192  0.20099024    -0.71700
O717        O  0.48079170  0.79051648  0.17136904    -0.60300
O718        O  0.52096066  0.82574208  0.20200068    -0.68700
O719        O  0.52018732  0.84925958  0.17709367    -0.68300
O720        O  0.47948094  0.81345958  0.14592231    -0.59500
O721        O  0.47649244  0.84616908  0.17590908    -0.72100
O722        O  0.52303549  0.81686478  0.14700284    -0.70800
Cu723      Cu  0.50086360  0.80744762  0.18749610     1.04600
Cu724      Cu  0.49973569  0.83229184  0.16057306     1.04300
C725        C  0.53054783  0.80031436  0.15481915     0.95500
C726        C  0.47008538  0.83940999  0.19337831     0.94600
C727        C  0.47417081  0.79595120  0.15357265     0.86800
C728        C  0.52686794  0.84314262  0.19471485     0.93000
O729        O  0.29447363  0.01976513  0.32078139    -0.70700
O730        O  0.32632647  0.97726815  0.28911528    -0.71700
O731        O  0.29430855  0.97621457  0.31926359    -0.60300
O732        O  0.32636473  0.02062131  0.29042889    -0.68700
O733        O  0.35018086  0.02009308  0.31510194    -0.68300
O734        O  0.31807574  0.97513701  0.34404723    -0.59500
O735        O  0.35013513  0.97652159  0.31379393    -0.72100
O736        O  0.31804651  0.01901061  0.34567040    -0.70800
Cu737      Cu  0.30955147  0.99851580  0.30406981     1.04600
Cu738      Cu  0.33492689  0.99768471  0.33055555     1.04300
C739        C  0.30100798  0.02602096  0.33837262     0.95500
C740        C  0.34344112  0.97030962  0.29625276     0.94600
C741        C  0.30100573  0.96867249  0.33626781     0.86800
C742        C  0.34358253  0.02708229  0.29779172     0.93000
O743        O  0.16929578  0.85158553  0.46843582    -0.70700
O744        O  0.14328415  0.81599167  0.51269425    -0.71700
O745        O  0.17096352  0.85051377  0.51225545    -0.60300
O746        O  0.14129181  0.81726186  0.46901220    -0.68700
O747        O  0.16780574  0.79524762  0.46830946    -0.68300
O748        O  0.19785165  0.82909720  0.51028809    -0.59500
O749        O  0.17021626  0.79475945  0.51153859    -0.72100
O750        O  0.19583856  0.82969251  0.46717800    -0.70800
Cu751      Cu  0.15524815  0.83461168  0.49064146     1.04600
Cu752      Cu  0.18383420  0.81146021  0.48921913     1.04300
C753        C  0.18703234  0.84637876  0.46122247     0.95500
C754        C  0.15252475  0.79962965  0.51901186     0.94600
C755        C  0.18927770  0.84528569  0.51772530     0.86800
C756        C  0.14967298  0.80061622  0.46243044     0.93000
O757        O  0.02019153  0.68548379  0.33469506    -0.70700
O758        O  0.97557352  0.65827807  0.30153581    -0.71700
O759        O  0.97709123  0.68664218  0.33525620    -0.60300
O760        O  0.01884066  0.65761139  0.30088878    -0.68700
O761        O  0.01895934  0.63084626  0.32229095    -0.68300
O762        O  0.97630201  0.66029941  0.35739140    -0.59500
O763        O  0.97531583  0.63181947  0.32333077    -0.72100
O764        O  0.02034893  0.65893558  0.35655005    -0.70800
Cu765      Cu  0.99791105  0.67287250  0.31736750     1.04600
Cu766      Cu  0.99769832  0.64452088  0.34071702     1.04300
C767        C  0.02710433  0.67670552  0.35100847     0.95500
C768        C  0.96875591  0.64043698  0.30677970     0.94600
C769        C  0.97049705  0.67845552  0.35197129     0.86800
C770        C  0.02527736  0.63956345  0.30564047     0.93000
O771        O  0.82837702  0.85553601  0.51456200    -0.70700
O772        O  0.85824391  0.82394560  0.47008029    -0.71700
O773        O  0.82808671  0.85625693  0.47034384    -0.60300
O774        O  0.85814160  0.82278293  0.51394068    -0.68700
O775        O  0.83224801  0.80023350  0.51367061    -0.68300
O776        O  0.80311968  0.83249278  0.47007553    -0.59500
O777        O  0.83329613  0.80014910  0.47040881    -0.72100
O778        O  0.80264776  0.83263776  0.51334415    -0.70800
Cu779      Cu  0.84412906  0.84049846  0.49222076     1.04600
Cu780      Cu  0.81697954  0.81560810  0.49182113     1.04300
C781        C  0.81063227  0.84917124  0.52073492     0.95500
C782        C  0.85077729  0.80675368  0.46376203     0.94600
C783        C  0.81061493  0.84961180  0.46362672     0.86800
C784        C  0.84986947  0.80600480  0.52058452     0.93000
O785        O  0.66640235  0.02305451  0.29961778    -0.70700
O786        O  0.69720283  0.97955463  0.33084553    -0.71700
O787        O  0.66748871  0.97978617  0.29841752    -0.60300
O788        O  0.69625770  0.02277582  0.33214471    -0.68700
O789        O  0.67080088  0.02201815  0.35535080    -0.68300
O790        O  0.64192829  0.97831627  0.32128338    -0.59500
O791        O  0.67172969  0.97787663  0.35397272    -0.72100
O792        O  0.64090383  0.02181462  0.32257772    -0.70800
Cu793      Cu  0.68269703  0.00136626  0.31449725     1.04600
Cu794      Cu  0.65544943  0.99998721  0.33916854     1.04300
C795        C  0.64847504  0.02889888  0.30570865     0.95500
C796        C  0.68946743  0.97193375  0.34737779     0.94600
C797        C  0.64998738  0.97246378  0.30415967     0.86800
C798        C  0.68835989  0.02894288  0.34918484     0.93000
O799        O  0.02207146  0.67860916  0.64250216    -0.70700
O800        O  0.97757435  0.64746833  0.67311280    -0.71700
O801        O  0.97824468  0.67919759  0.64238637    -0.60300
O802        O  0.02160374  0.64709636  0.67311563    -0.68700
O803        O  0.02236544  0.67145689  0.69723356    -0.68300
O804        O  0.97838485  0.70276483  0.66727062    -0.59500
O805        O  0.97887228  0.67110094  0.69807356    -0.72100
O806        O  0.02209106  0.70278774  0.66677530    -0.70800
Cu807      Cu  0.99981320  0.66225179  0.65689721     1.04600
Cu808      Cu  0.00035962  0.68785878  0.68316203     1.04300
C809        C  0.02913505  0.69564723  0.64972644     0.95500
C810        C  0.97175623  0.65412226  0.69081318     0.94600
C811        C  0.97162811  0.69628464  0.64984976     0.86800
C812        C  0.02895715  0.65426953  0.69003853     0.93000
O813        O  0.66441712  0.97064980  0.69134650    -0.70700
O814        O  0.69683540  0.01401548  0.66165032    -0.71700
O815        O  0.66560179  0.01380874  0.69231013    -0.60300
O816        O  0.69598210  0.97058939  0.66035956    -0.68700
O817        O  0.67178457  0.97108758  0.63586263    -0.68300
O818        O  0.64139392  0.01506605  0.66804864    -0.59500
O819        O  0.67309968  0.01528775  0.63694016    -0.72100
O820        O  0.64020318  0.97120125  0.66685309    -0.70800
Cu821      Cu  0.68152100  0.99216453  0.67720042     1.04600
Cu822      Cu  0.65575147  0.99318751  0.65100800     1.04300
C823        C  0.64702636  0.96447905  0.68416770     0.95500
C824        C  0.69026335  0.02165979  0.64465222     0.94600
C825        C  0.64858819  0.02121929  0.68545564     0.86800
C826        C  0.68892907  0.96419892  0.64302993     0.93000
O827        O  0.64751683  0.67752536  0.97804599    -0.70700
O828        O  0.67826413  0.64328309  0.02007452    -0.71700
O829        O  0.64887650  0.67631062  0.02147465    -0.60300
O830        O  0.67666768  0.64428880  0.97631834    -0.68700
O831        O  0.70294330  0.66662377  0.97689521    -0.68300
O832        O  0.67438914  0.69929613  0.02099955    -0.59500
O833        O  0.70361044  0.66644660  0.02020549    -0.72100
O834        O  0.67360693  0.69992515  0.97769031    -0.70800
Cu835      Cu  0.66193764  0.65953218  0.99896351     1.04600
Cu836      Cu  0.68953292  0.68384442  0.99888644     1.04300
C837        C  0.65550638  0.69450636  0.97167512     0.95500
C838        C  0.69592943  0.64942121  0.02674550     0.94600
C839        C  0.65690561  0.69315991  0.02805289     0.86800
C840        C  0.69451507  0.65010253  0.96998605     0.93000
C841        C  0.06958892  0.28312987  0.61326102     0.25800
C842        C  0.07469268  0.26371701  0.62154570    -0.22300
C843        C  0.06487851  0.25687298  0.63965465     0.20700
C844        C  0.05020549  0.26929414  0.64953648     0.25800
C845        C  0.04521380  0.28905575  0.64158859    -0.22200
C846        C  0.05501717  0.29576147  0.62320777     0.20700
F847        F  0.05105224  0.31477235  0.61514623    -0.12200
F848        F  0.07952724  0.29032104  0.59615762    -0.14600
F849        F  0.04104430  0.26188820  0.66698229    -0.14600
F850        F  0.06966113  0.23810845  0.64788053    -0.12200
C851        C  0.11254984  0.20724760  0.56553488     0.25800
C852        C  0.12156542  0.22528867  0.57363582    -0.22300
C853        C  0.14089245  0.23191445  0.56618285     0.20700
C854        C  0.15137155  0.22050843  0.55113780     0.25800
C855        C  0.14278653  0.20196526  0.54328599    -0.22200
C856        C  0.12306473  0.19562381  0.55050179     0.20700
F857        F  0.11408281  0.17796743  0.54341168    -0.12200
F858        F  0.09410494  0.20027264  0.57297599    -0.14600
F859        F  0.17012610  0.22759524  0.54460417    -0.14600
F860        F  0.14982780  0.24939516  0.57379445    -0.12200
C861        C  0.06620938  0.25702650  0.54335951     0.25800
C862        C  0.04664371  0.24796369  0.54672751    -0.22300
C863        C  0.04275189  0.23769776  0.56551409     0.20700
C864        C  0.05811675  0.23667056  0.58080885     0.25800
C865        C  0.07777346  0.24552201  0.57740647    -0.22200
C866        C  0.08173681  0.25564781  0.55853185     0.20700
F867        F  0.10053986  0.26446354  0.55498345    -0.12200
F868        F  0.07043721  0.26667856  0.52515342    -0.14600
F869        F  0.05400124  0.22662462  0.59881251    -0.14600
F870        F  0.02395805  0.22884689  0.56910571    -0.12200
C871        C  0.08050348  0.30061982  0.38174203     0.25800
C872        C  0.07898894  0.27927938  0.38572730    -0.22300
C873        C  0.06117470  0.26840486  0.37956232     0.20700
C874        C  0.04522179  0.27864061  0.36914435     0.25800
C875        C  0.04671179  0.29997139  0.36504562    -0.22200
C876        C  0.06429752  0.31099681  0.37171187     0.20700
F877        F  0.06627508  0.33150904  0.36748184    -0.12200
F878        F  0.09784552  0.31126922  0.38721026    -0.14600
F879        F  0.02838546  0.26766184  0.36281573    -0.14600
F880        F  0.05977142  0.24763053  0.38253226    -0.12200
C881        C  0.12248460  0.21031962  0.42467247     0.25800
C882        C  0.12175035  0.23173071  0.42828891    -0.22300
C883        C  0.12983071  0.23987210  0.44670318     0.20700
C884        C  0.13964865  0.22683136  0.46089410     0.25800
C885        C  0.14111746  0.20544339  0.45695798    -0.22200
C886        C  0.13182400  0.19716145  0.43911355     0.20700
F887        F  0.13286746  0.17654717  0.43509274    -0.12200
F888        F  0.11474948  0.20229465  0.40684160    -0.14600
F889        F  0.14788411  0.23509133  0.47840754    -0.14600
F890        F  0.12903248  0.26055419  0.45045528    -0.12200
C891        C  0.07469435  0.27142874  0.43830205     0.25800
C892        C  0.07987551  0.25410687  0.42631157    -0.22300
C893        C  0.06922042  0.23541667  0.42945947     0.20700
C894        C  0.05351481  0.23402571  0.44442127     0.25800
C895        C  0.04822022  0.25139074  0.45660413    -0.22200
C896        C  0.05910138  0.27012777  0.45334829     0.20700
F897        F  0.05501125  0.28715666  0.46498709    -0.12200
F898        F  0.08515325  0.28951072  0.43571680    -0.14600
F899        F  0.04328991  0.21576344  0.44667094    -0.14600
F900        F  0.07372201  0.21864693  0.41763331    -0.12200
C901        C  0.94004269  0.25469198  0.63953464     0.25800
C902        C  0.92992724  0.26138797  0.62153970    -0.22300
C903        C  0.93462662  0.28092016  0.61326192     0.20700
C904        C  0.94880937  0.29392274  0.62325855     0.25800
C905        C  0.95848371  0.28758818  0.64181108    -0.22200
C906        C  0.95427630  0.26756097  0.64953629     0.20700
F907        F  0.96379768  0.26034257  0.66684845    -0.12200
F908        F  0.93587778  0.23570402  0.64760125    -0.14600
F909        F  0.95248637  0.31295040  0.61507070    -0.14600
F910        F  0.92454044  0.28795217  0.59620879    -0.12200
C911        C  0.89110427  0.20561983  0.56571320     0.25800
C912        C  0.88214922  0.22351907  0.57413478    -0.22300
C913        C  0.86278616  0.23023506  0.56690278     0.20700
C914        C  0.85224445  0.21905677  0.55168734     0.25800
C915        C  0.86080996  0.20067770  0.54349492    -0.22200
C916        C  0.88056527  0.19427134  0.55051449     0.20700
F917        F  0.88963822  0.17686448  0.54296784    -0.12200
F918        F  0.90952616  0.19848406  0.57299505    -0.14600
F919        F  0.83341874  0.22610130  0.54539636    -0.14600
F920        F  0.85388756  0.24754431  0.57490216    -0.12200
C921        C  0.92252818  0.25589307  0.55963031     0.25800
C922        C  0.92581335  0.24365596  0.57731036    -0.22300
C923        C  0.94443409  0.23256551  0.57926750     0.20700
C924        C  0.95944289  0.23334953  0.56360560     0.25800
C925        C  0.95632857  0.24574568  0.54598628    -0.22200
C926        C  0.93783045  0.25720451  0.54420117     0.20700
F927        F  0.93441194  0.26927927  0.52732617    -0.12200
F928        F  0.90468582  0.26687147  0.55759627    -0.14600
F929        F  0.97728506  0.22240702  0.56587960    -0.14600
F930        F  0.94786066  0.22070200  0.59627061    -0.12200
C931        C  0.94624509  0.26206915  0.37775019     0.25800
C932        C  0.92711135  0.27100036  0.38291309    -0.22300
C933        C  0.92381330  0.29221734  0.37957188     0.20700
C934        C  0.93941972  0.30437151  0.37069493     0.25800
C935        C  0.95817068  0.29520902  0.36446708    -0.22200
C936        C  0.96164389  0.27406800  0.36839906     0.20700
F937        F  0.97984616  0.26499699  0.36289144    -0.12200
F938        F  0.94956780  0.24151351  0.38074369    -0.14600
F939        F  0.93576900  0.32476013  0.36706256    -0.14600
F940        F  0.90534399  0.30101850  0.38458538    -0.12200
C941        C  0.87895048  0.23215824  0.44357577     0.25800
C942        C  0.88490099  0.22264500  0.42499082    -0.22300
C943        C  0.88179681  0.20130971  0.42224935     0.20700
C944        C  0.87239297  0.18960741  0.43784756     0.25800
C945        C  0.86539520  0.19933011  0.45597808    -0.22200
C946        C  0.86903692  0.22059307  0.45893318     0.20700
F947        F  0.86268356  0.23017905  0.47655175    -0.12200
F948        F  0.88169338  0.25283713  0.44633028    -0.14600
F949        F  0.86896497  0.16908594  0.43474384    -0.14600
F950        F  0.88747816  0.19196438  0.40428985    -0.12200
C951        C  0.93574772  0.22857133  0.43002245     0.25800
C952        C  0.92591530  0.24696439  0.42392292    -0.22300
C953        C  0.93163294  0.26565660  0.43342026     0.20700
C954        C  0.94701738  0.26603561  0.44872129     0.25800
C955        C  0.95694931  0.24758883  0.45503318    -0.22200
C956        C  0.95106154  0.22881563  0.44540649     0.20700
F957        F  0.96021507  0.21061955  0.45064395    -0.12200
F958        F  0.93082809  0.21038473  0.42069034    -0.14600
F959        F  0.95195860  0.28451840  0.45744988    -0.14600
F960        F  0.92190405  0.28353970  0.42819142    -0.12200
C961        C  0.06057415  0.62919979  0.25984578     0.25800
C962        C  0.06865296  0.60967068  0.26469698    -0.22300
C963        C  0.06200259  0.59951855  0.28275099     0.20700
C964        C  0.04765271  0.60897683  0.29598871     0.25800
C965        C  0.03989765  0.62889342  0.29144800    -0.22200
C966        C  0.04627219  0.63867930  0.27293316     0.20700
F967        F  0.03899125  0.65764247  0.26746855    -0.12200
F968        F  0.06690707  0.63935301  0.24252505    -0.14600
F969        F  0.04184370  0.59880836  0.31346557    -0.14600
F970        F  0.07038638  0.58107958  0.28832493    -0.12200
C971        C  0.13308501  0.55397201  0.23232130     0.25800
C972        C  0.11514019  0.56324990  0.22442565    -0.22300
C973        C  0.10743157  0.55711055  0.20509059     0.20700
C974        C  0.11809935  0.54232798  0.19333885     0.25800
C975        C  0.13665866  0.53346804  0.20086491    -0.22200
C976        C  0.14367007  0.53910886  0.22081173     0.20700
F977        F  0.16103395  0.53062847  0.22918032    -0.12200
F978        F  0.14064897  0.55971445  0.25109826    -0.14600
F979        F  0.11054808  0.53722623  0.17439196    -0.14600
F980        F  0.09027550  0.56630076  0.19707333    -0.12200
C981        C  0.07369391  0.54871464  0.25570226     0.25800
C982        C  0.07140111  0.56662496  0.24361066    -0.22300
C983        C  0.05350473  0.56904609  0.23146738     0.20700
C984        C  0.03811726  0.55366037  0.23130452     0.25800
C985        C  0.04008555  0.53597096  0.24390871    -0.22200
C986        C  0.05797898  0.53369220  0.25619151     0.20700
F987        F  0.06045190  0.51667291  0.26829169    -0.12200
F988        F  0.09097893  0.54610281  0.26741743    -0.14600
F989        F  0.02105883  0.55627654  0.21924226    -0.14600
F990        F  0.05114573  0.58622170  0.21958023    -0.12200
C991        C  0.07590803  0.37638891  0.29026054     0.25800
C992        C  0.07275384  0.37636867  0.26876872    -0.22300
C993        C  0.05440553  0.36825963  0.26045341     0.20700
C994        C  0.03965383  0.35934317  0.27348720     0.25800
C995        C  0.04300602  0.35880924  0.29497824    -0.22200
C996        C  0.06088792  0.36794919  0.30339198     0.20700
F997        F  0.06432610  0.36762109  0.32413404    -0.12200
F998        F  0.09371450  0.38416651  0.29840693    -0.14600
F999        F  0.02218589  0.35100472  0.26514540    -0.14600
F1000       F  0.05130688  0.36805199  0.23965477    -0.12200
C1001       C  0.11784769  0.41378668  0.19746082     0.25800
C1002       C  0.11471665  0.41632927  0.21880566    -0.22300
C1003       C  0.12168655  0.43431252  0.22874240     0.20700
C1004       C  0.13232087  0.44940076  0.21754867     0.25800
C1005       C  0.13576979  0.44680724  0.19622056    -0.22200
C1006       C  0.12803561  0.42916837  0.18609524     0.20700
F1007       F  0.13135583  0.42633169  0.16552566    -0.12200
F1008       F  0.11146674  0.39621355  0.18781418    -0.14600
F1009       F  0.13946235  0.46648000  0.22756551    -0.14600
F1010       F  0.11921801  0.43668839  0.24949545    -0.12200
C1011       C  0.04680714  0.43588865  0.22451748     0.25800
C1012       C  0.04121620  0.44622193  0.24298368    -0.22300
C1013       C  0.05228028  0.44142905  0.26125549     0.20700
C1014       C  0.06818182  0.42665549  0.26109231     0.25800
C1015       C  0.07335928  0.41613709  0.24280934    -0.22200
C1016       C  0.06268796  0.42100197  0.22448972     0.20700
F1017       F  0.06728949  0.41086914  0.20666037    -0.12200
F1018       F  0.03669013  0.43983100  0.20651051    -0.14600
F1019       F  0.07890013  0.42292076  0.27877639    -0.14600
F1020       F  0.04798642  0.45122082  0.27935754    -0.12200
C1021       C  0.92940018  0.60100632  0.28736596     0.25800
C1022       C  0.92324907  0.61002791  0.26861120    -0.22300
C1023       C  0.93276169  0.62835255  0.26188941     0.20700
C1024       C  0.94782162  0.63800224  0.27404219     0.25800
C1025       C  0.95345334  0.62960604  0.29342027    -0.22200
C1026       C  0.94440839  0.61066501  0.29969002     0.20700
F1027       F  0.94956370  0.60171405  0.31800450    -0.12200
F1028       F  0.91999886  0.58351065  0.29434818    -0.14600
F1029       F  0.95665747  0.65569140  0.26681582    -0.14600
F1030       F  0.92715708  0.63710627  0.24360323    -0.12200
C1031       C  0.85329517  0.55841485  0.23640683     0.25800
C1032       C  0.87343035  0.56455853  0.23076678    -0.22300
C1033       C  0.88286950  0.55551498  0.21339300     0.20700
C1034       C  0.87229695  0.54052993  0.20182025     0.25800
C1035       C  0.85193013  0.53450807  0.20728681    -0.22200
C1036       C  0.84262231  0.54362794  0.22481727     0.20700
F1037       F  0.82295436  0.53868372  0.23059497    -0.12200
F1038       F  0.84378237  0.56699306  0.25310758    -0.14600
F1039       F  0.88196537  0.53221641  0.18508798    -0.14600
F1040       F  0.90183887  0.56197073  0.20688219    -0.12200
C1041       C  0.93709511  0.57026974  0.23798418     0.25800
C1042       C  0.91839208  0.56684174  0.24867835    -0.22300
C1043       C  0.91514816  0.54771242  0.25855291     0.20700
C1044       C  0.93051127  0.53232337  0.25792778     0.25800
C1045       C  0.94908315  0.53567084  0.24692645    -0.22200
C1046       C  0.95220145  0.55472052  0.23688847     0.20700
F1047       F  0.97012137  0.55842202  0.22643141    -0.12200
F1048       F  0.94046480  0.58857051  0.22820150    -0.14600
F1049       F  0.92710981  0.51401518  0.26771258    -0.14600
F1050       F  0.89725918  0.54415048  0.26909279    -0.12200
C1051       C  0.93387883  0.35292337  0.26304923     0.25800
C1052       C  0.92506542  0.37212082  0.26809140    -0.22300
C1053       C  0.93260581  0.38304812  0.28532973     0.20700
C1054       C  0.94810442  0.37442976  0.29788029     0.25800
C1055       C  0.95624488  0.35461080  0.29347099    -0.22200
C1056       C  0.94930971  0.34427052  0.27548684     0.20700
F1057       F  0.95710040  0.32552449  0.26998388    -0.12200
F1058       F  0.92724775  0.34231466  0.24613504    -0.14600
F1059       F  0.95472267  0.38535025  0.31458805    -0.14600
F1060       F  0.92414231  0.40149656  0.29079028    -0.12200
C1061       C  0.88278507  0.42405778  0.21171921     0.25800
C1062       C  0.87353416  0.41503250  0.22922085    -0.22300
C1063       C  0.85346385  0.42116493  0.23503753     0.20700
C1064       C  0.84287123  0.43625672  0.22374632     0.25800
C1065       C  0.85210130  0.44551943  0.20618524    -0.22200
C1066       C  0.87227128  0.43926432  0.20039259     0.20700
F1067       F  0.88183727  0.44763229  0.18362269    -0.12200
F1068       F  0.90156221  0.41742552  0.20490069    -0.14600
F1069       F  0.82342935  0.44150531  0.22997598    -0.14600
F1070       F  0.84401082  0.41243586  0.25171290    -0.12200
C1071       C  0.91506844  0.43368168  0.25666957     0.25800
C1072       C  0.91843415  0.41457072  0.24683363    -0.22300
C1073       C  0.93687687  0.41143082  0.23567622     0.20700
C1074       C  0.95191422  0.42705301  0.23455278     0.25800
C1075       C  0.94898384  0.44584977  0.24509590    -0.22200
C1076       C  0.93039477  0.44911992  0.25607666     0.20700
F1077       F  0.92699942  0.46736554  0.26595989    -0.12200
F1078       F  0.89721489  0.43709391  0.26731021    -0.14600
F1079       F  0.96962376  0.42360308  0.22368319    -0.14600
F1080       F  0.94008768  0.39326150  0.22561797    -0.12200
C1081       C  0.70921226  0.60851884  0.06708571     0.25800
C1082       C  0.72898387  0.61500883  0.07339870    -0.22300
C1083       C  0.73835970  0.63199778  0.06365733     0.20700
C1084       C  0.72792394  0.64276103  0.04807307     0.25800
C1085       C  0.70761071  0.63694134  0.04219406    -0.22200
C1086       C  0.69854891  0.61939292  0.05164863     0.20700
F1087       F  0.67908080  0.61312809  0.04657177    -0.12200
F1088       F  0.69972842  0.59238977  0.07673255    -0.14600
F1089       F  0.73769006  0.65909501  0.03905810    -0.14600
F1090       F  0.75757364  0.63839019  0.06953152    -0.12200
C1091       C  0.76743292  0.54140646  0.14986249     0.25800
C1092       C  0.78698216  0.53516115  0.14211092    -0.22300
C1093       C  0.79444393  0.54445760  0.12376203     0.20700
C1094       C  0.78283545  0.55980288  0.11374003     0.25800
C1095       C  0.76366084  0.56613990  0.12184497    -0.22200
C1096       C  0.75604072  0.55683372  0.13989290     0.20700
F1097       F  0.73762063  0.56297765  0.14808900    -0.12200
F1098       F  0.75933858  0.53291549  0.16733738    -0.14600
F1099       F  0.79088570  0.56932346  0.09679258    -0.14600
F1100       F  0.81322753  0.53922885  0.11578584    -0.12200
C1101       C  0.73319004  0.53731449  0.06424509     0.25800
C1102       C  0.74627856  0.53945257  0.04690588    -0.22300
C1103       C  0.75881846  0.55721947  0.04516252     0.20700
C1104       C  0.75820089  0.57263451  0.06037794     0.25800
C1105       C  0.74544405  0.57034140  0.07783147    -0.22200
C1106       C  0.73297902  0.55256970  0.07973350     0.20700
F1107       F  0.72046827  0.55018674  0.09648911    -0.12200
F1108       F  0.72109337  0.52021476  0.06645426    -0.14600
F1109       F  0.77040006  0.58966554  0.05836500    -0.14600
F1110       F  0.77137613  0.55983261  0.02846761    -0.12200
C1111       C  0.69624222  0.37018702  0.04687637     0.25800
C1112       C  0.70402557  0.35282517  0.03611567    -0.22300
C1113       C  0.72427659  0.34581375  0.04062054     0.20700
C1114       C  0.73599006  0.35525899  0.05609958     0.25800
C1115       C  0.72793220  0.37204186  0.06717999    -0.22200
C1116       C  0.70814902  0.37968976  0.06233234     0.20700
F1117       F  0.69990396  0.39558662  0.07335406    -0.12200
F1118       F  0.67687947  0.37753787  0.04303067    -0.14600
F1119       F  0.75519040  0.34779789  0.06053153    -0.14600
F1120       F  0.73286668  0.32974346  0.03011182    -0.12200
C1121       C  0.76813836  0.44054144  0.14601480     0.25800
C1122       C  0.78826062  0.44658801  0.13976372    -0.22300
C1123       C  0.79679329  0.43767065  0.12168087     0.20700
C1124       C  0.78559382  0.42288347  0.11043970     0.25800
C1125       C  0.76583152  0.41670961  0.11710379    -0.22200
C1126       C  0.75716839  0.42563333  0.13485595     0.20700
F1127       F  0.73810438  0.41961819  0.14157305    -0.12200
F1128       F  0.75901974  0.44882904  0.16306350    -0.14600
F1129       F  0.79447327  0.41382181  0.09366147    -0.14600
F1130       F  0.81618639  0.44273204  0.11513670    -0.12200
C1131       C  0.76065480  0.41476355  0.05624551     0.25800
C1132       C  0.74701214  0.41543634  0.07316689    -0.22300
C1133       C  0.73346002  0.43230561  0.07529991     0.20700
C1134       C  0.73336966  0.44824247  0.06051846     0.25800
C1135       C  0.74734971  0.44783089  0.04375097    -0.22200
C1136       C  0.76103969  0.43095485  0.04179081     0.20700
F1137       F  0.77445585  0.42992421  0.02559799    -0.12200
F1138       F  0.77377754  0.39848988  0.05394880    -0.14600
F1139       F  0.72004830  0.46435390  0.06288983    -0.14600
F1140       F  0.72021907  0.43316871  0.09163052    -0.12200
C1141       C  0.70855967  0.62113860  0.92131868     0.25800
C1142       C  0.72901746  0.61503722  0.92578308    -0.22300
C1143       C  0.73756805  0.61947860  0.94526311     0.20700
C1144       C  0.72609702  0.63068126  0.95978457     0.25800
C1145       C  0.70588865  0.63732734  0.95507317    -0.22200
C1146       C  0.69694158  0.63201170  0.93600878     0.20700
F1147       F  0.67740787  0.63829816  0.93123491    -0.12200
F1148       F  0.70008559  0.61703478  0.90251038    -0.14600
F1149       F  0.73476498  0.63524491  0.97840417    -0.14600
F1150       F  0.75746078  0.61418060  0.94972494    -0.12200
C1151       C  0.80009222  0.57460629  0.88502563     0.25800
C1152       C  0.77843767  0.57227992  0.88508091    -0.22300
C1153       C  0.76934395  0.55518047  0.87527774     0.20700
C1154       C  0.78178116  0.54077051  0.86498767     0.25800
C1155       C  0.80350077  0.54317820  0.86466977    -0.22200
C1156       C  0.81261226  0.55993047  0.87517882     0.20700
F1157       F  0.83351326  0.56269733  0.87491852    -0.12200
F1158       F  0.80900765  0.59148559  0.89387967    -0.14600
F1159       F  0.77261176  0.52451724  0.85524733    -0.14600
F1160       F  0.74836669  0.55306124  0.87477934    -0.12200
C1161       C  0.77085425  0.56837459  0.93707682     0.25800
C1162       C  0.75305433  0.57343865  0.92563599    -0.22300
C1163       C  0.73444236  0.56291630  0.92975575     0.20700
C1164       C  0.73358576  0.54748738  0.94501991     0.25800
C1165       C  0.75143832  0.54221407  0.95658196    -0.22200
C1166       C  0.77010438  0.55297793  0.95239873     0.20700
F1167       F  0.78764447  0.54888157  0.96330073    -0.12200
F1168       F  0.78885795  0.57880295  0.93377847    -0.14600
F1169       F  0.71529182  0.53750356  0.94815677    -0.14600
F1170       F  0.71715424  0.56731482  0.91859214    -0.12200
C1171       C  0.72008691  0.38573628  0.93154090     0.25800
C1172       C  0.73861000  0.37628818  0.92512426    -0.22300
C1173       C  0.74371808  0.35656758  0.93258307     0.20700
C1174       C  0.73009302  0.34593564  0.94552119     0.25800
C1175       C  0.71102219  0.35493968  0.95138547    -0.22200
C1176       C  0.70654081  0.37530158  0.94483510     0.20700
F1177       F  0.68884751  0.38503022  0.95082636    -0.12200
F1178       F  0.71433323  0.40442309  0.92385728    -0.14600
F1179       F  0.73552117  0.32663371  0.95186906    -0.14600
F1180       F  0.76176460  0.34732590  0.92683269    -0.12200
C1181       C  0.77260325  0.43363952  0.86236985     0.25800
C1182       C  0.77875927  0.42524959  0.88136238    -0.22300
C1183       C  0.79639457  0.43299724  0.89142926     0.20700
C1184       C  0.80826470  0.44856421  0.88214136     0.25800
C1185       C  0.80265582  0.45646762  0.86253982    -0.22200
C1186       C  0.78431254  0.44917507  0.85305500     0.20700
F1187       F  0.77780161  0.45665569  0.83451190    -0.12200
F1188       F  0.75537621  0.42642024  0.85260918    -0.14600
F1189       F  0.82549088  0.45542277  0.89213700    -0.14600
F1190       F  0.80282404  0.42465856  0.90962778    -0.12200
C1191       C  0.76712186  0.41831653  0.94257330     0.25800
C1192       C  0.75693227  0.42069992  0.92353184    -0.22300
C1193       C  0.74492808  0.43851543  0.92000746     0.20700
C1194       C  0.74268352  0.45350983  0.93555896     0.25800
C1195       C  0.75313231  0.45126475  0.95454435    -0.22200
C1196       C  0.76553179  0.43363941  0.95783362     0.20700
F1197       F  0.77575827  0.43107608  0.97603433    -0.12200
F1198       F  0.77894084  0.40130143  0.94615668    -0.14600
F1199       F  0.73075037  0.47044326  0.93189967    -0.14600
F1200       F  0.73497378  0.44103228  0.90166385    -0.12200
C1201       C  0.07209275  0.61620264  0.70234791     0.25800
C1202       C  0.07756983  0.62236196  0.72240216    -0.22300
C1203       C  0.06681775  0.63852685  0.73204712     0.20700
C1204       C  0.05072771  0.64860518  0.72172848     0.25800
C1205       C  0.04529906  0.64280591  0.70136324    -0.22200
C1206       C  0.05610905  0.62636148  0.69183347     0.20700
F1207       F  0.05188094  0.62063744  0.67204915    -0.12200
F1208       F  0.08298398  0.60111705  0.69253574    -0.14600
F1209       F  0.04070133  0.66420084  0.73167391    -0.14600
F1210       F  0.07216045  0.64475700  0.75141393    -0.12200
C1211       C  0.14399041  0.56573697  0.75202055     0.25800
C1212       C  0.12567880  0.57499886  0.75911577    -0.22300
C1213       C  0.11727136  0.56899592  0.77822751     0.20700
C1214       C  0.12717383  0.55396063  0.79024234     0.25800
C1215       C  0.14582914  0.54480893  0.78337610    -0.22200
C1216       C  0.15394288  0.55069631  0.76392165     0.20700
F1217       F  0.17161691  0.54208478  0.75636183    -0.12200
F1218       F  0.15245023  0.57157846  0.73364870    -0.14600
F1219       F  0.11884302  0.54899721  0.80891614    -0.14600
F1220       F  0.10021928  0.57862155  0.78591409    -0.12200
C1221       C  0.08269585  0.56181424  0.72574872     0.25800
C1222       C  0.08195517  0.57829909  0.73989492    -0.22300
C1223       C  0.06580375  0.57911390  0.75443674     0.20700
C1224       C  0.05107317  0.56317230  0.75549105     0.25800
C1225       C  0.05174333  0.54656684  0.74138237    -0.22200
C1226       C  0.06749695  0.54622206  0.72623782     0.20700
F1227       F  0.06853144  0.53047636  0.71233907    -0.12200
F1228       F  0.09810128  0.56094977  0.71142743    -0.14600
F1229       F  0.03587829  0.56418202  0.77003652    -0.14600
F1230       F  0.06459484  0.59523192  0.76786443    -0.12200
C1231       C  0.07422126  0.36087864  0.72572723     0.25800
C1232       C  0.07971555  0.38068399  0.71871378    -0.22300
C1233       C  0.06831620  0.38993610  0.70269887     0.20700
C1234       C  0.05183970  0.37924198  0.69346588     0.25800
C1235       C  0.04664013  0.35905895  0.70009938    -0.22200
C1236       C  0.05787802  0.35016124  0.71658099     0.20700
F1237       F  0.05364140  0.33073593  0.72348253    -0.12200
F1238       F  0.08499451  0.35170087  0.74130322    -0.14600
F1239       F  0.04128372  0.38853788  0.67783045    -0.14600
F1240       F  0.07382351  0.40881297  0.69522498    -0.12200
C1241       C  0.14706493  0.43840152  0.74763961     0.25800
C1242       C  0.12868491  0.42857595  0.75383856    -0.22300
C1243       C  0.11978927  0.43346056  0.77303593     0.20700
C1244       C  0.12925317  0.44793471  0.78601109     0.25800
C1245       C  0.14798809  0.45762945  0.78006977    -0.22200
C1246       C  0.15663496  0.45284464  0.76055809     0.20700
F1247       F  0.17445214  0.46194753  0.75392083    -0.12200
F1248       F  0.15585974  0.43383549  0.72907253    -0.14600
F1249       F  0.12027992  0.45194762  0.80461210    -0.14600
F1250       F  0.10258407  0.42334051  0.77979369    -0.12200
C1251       C  0.06596161  0.42101347  0.74892085     0.25800
C1252       C  0.08399608  0.42492123  0.73727476    -0.22300
C1253       C  0.08636101  0.44424814  0.72753806     0.20700
C1254       C  0.07084184  0.45934098  0.72914704     0.25800
C1255       C  0.05289689  0.45554061  0.74093614    -0.22200
C1256       C  0.05063695  0.43632548  0.75097267     0.20700
F1257       F  0.03338126  0.43224934  0.76236227    -0.12200
F1258       F  0.06347024  0.40254549  0.75865609    -0.14600
F1259       F  0.07351139  0.47786536  0.71953882    -0.14600
F1260       F  0.10360074  0.44829592  0.71613389    -0.12200
C1261       C  0.92435778  0.62440555  0.70863454     0.25800
C1262       C  0.92986441  0.61979340  0.72918338    -0.22300
C1263       C  0.94935309  0.62580436  0.73670512     0.20700
C1264       C  0.96296782  0.63692210  0.72405222     0.25800
C1265       C  0.95745047  0.64175595  0.70355867    -0.22200
C1266       C  0.93824999  0.63502756  0.69574044     0.20700
F1267       F  0.93255705  0.63966380  0.67603629    -0.12200
F1268       F  0.90536701  0.61899008  0.70126530    -0.14600
F1269       F  0.98154768  0.64310766  0.73183814    -0.14600
F1270       F  0.95469771  0.62191582  0.75666586    -0.12200
C1271       C  0.88565965  0.55771460  0.77016479     0.25800
C1272       C  0.89236296  0.57579599  0.78014383    -0.22300
C1273       C  0.88965611  0.57787799  0.80163902     0.20700
C1274       C  0.88000536  0.56211714  0.81298938     0.25800
C1275       C  0.87239425  0.54446966  0.80279621    -0.22200
C1276       C  0.87552408  0.54224519  0.78137465     0.20700
F1277       F  0.86839557  0.52523582  0.77124463    -0.12200
F1278       F  0.88770198  0.55566139  0.74933907    -0.14600
F1279       F  0.87691809  0.56465504  0.83364053    -0.14600
F1280       F  0.89585609  0.59540596  0.81148246    -0.12200
C1281       C  0.93612615  0.56881321  0.73301983     0.25800
C1282       C  0.93142640  0.57762038  0.75235552    -0.22300
C1283       C  0.94211947  0.57058989  0.76993773     0.20700
C1284       C  0.95711800  0.55498429  0.76832959     0.25800
C1285       C  0.96195538  0.54601362  0.74896248    -0.22200
C1286       C  0.95124296  0.55324969  0.73128683     0.20700
F1287       F  0.95516282  0.54517734  0.71227455    -0.12200
F1288       F  0.92562434  0.57488177  0.71585379    -0.14600
F1289       F  0.96701298  0.54887591  0.78585008    -0.14600
F1290       F  0.93833052  0.57920306  0.78872785    -0.12200
C1291       C  0.92434937  0.37498737  0.70729307     0.25800
C1292       C  0.92972594  0.38129317  0.72744321    -0.22300
C1293       C  0.94970151  0.37710776  0.73500596     0.20700
C1294       C  0.96390578  0.36620943  0.72281713     0.25800
C1295       C  0.95844835  0.35966385  0.70278609    -0.22200
C1296       C  0.93876019  0.36451884  0.69489489     0.20700
F1297       F  0.93312084  0.35810484  0.67568035    -0.12200
F1298       F  0.90496202  0.37854064  0.69985255    -0.14600
F1299       F  0.98294136  0.36174726  0.73067287    -0.14600
F1300       F  0.95500254  0.38238567  0.75465483    -0.12200
C1301       C  0.88558683  0.44451435  0.76835760     0.25800
C1302       C  0.89126947  0.42569333  0.77759146    -0.22300
C1303       C  0.88769532  0.42263795  0.79883840     0.20700
C1304       C  0.87810285  0.43807354  0.81065225     0.25800
C1305       C  0.87150892  0.45651814  0.80119112    -0.22200
C1306       C  0.87554939  0.45973871  0.78002984     0.20700
F1307       F  0.86944796  0.47752052  0.77059921    -0.12200
F1308       F  0.88858285  0.44762191  0.74777646    -0.14600
F1309       F  0.87408339  0.43448191  0.83098427    -0.14600
F1310       F  0.89298605  0.40444389  0.80796601    -0.12200
C1311       C  0.94193977  0.42952345  0.76880636     0.25800
C1312       C  0.93116104  0.42323896  0.75099768    -0.22300
C1313       C  0.93610495  0.43242601  0.73192715     0.20700
C1314       C  0.95146182  0.44777088  0.73064838     0.25800
C1315       C  0.96228223  0.45432255  0.74851825    -0.22200
C1316       C  0.95732133  0.44485614  0.76763883     0.20700
F1317       F  0.96741135  0.45024564  0.78528998    -0.12200
F1318       F  0.93783517  0.42044209  0.78732153    -0.14600
F1319       F  0.95545429  0.45636640  0.71187644    -0.14600
F1320       F  0.92558724  0.42692019  0.71457599    -0.12200
C1321       C  0.30268985  0.61330405  0.04934851     0.25800
C1322       C  0.29602541  0.63242176  0.04102903    -0.22300
C1323       C  0.27652599  0.64029440  0.04721115     0.20700
C1324       C  0.26450854  0.62982315  0.06179294     0.25800
C1325       C  0.27145330  0.61119038  0.07042093    -0.22200
C1326       C  0.29045336  0.60279163  0.06393693     0.20700
F1327       F  0.29771090  0.58505543  0.07259702    -0.12200
F1328       F  0.32125177  0.60499770  0.04386324    -0.14600
F1329       F  0.24613192  0.63815360  0.06788263    -0.14600
F1330       F  0.26906801  0.65838899  0.03951242    -0.12200
C1331       C  0.20255539  0.54043373  0.11705514     0.25800
C1332       C  0.20614682  0.53511065  0.13792075    -0.22300
C1333       C  0.22309572  0.54417572  0.14832049     0.20700
C1334       C  0.23576405  0.55852056  0.13828113     0.25800
C1335       C  0.23164885  0.56447985  0.11776963    -0.22200
C1336       C  0.21496848  0.55523856  0.10719959     0.20700
F1337       F  0.20975030  0.56137043  0.08782082    -0.12200
F1338       F  0.18688649  0.53152766  0.10615770    -0.14600
F1339       F  0.25193581  0.56694963  0.14883400    -0.14600
F1340       F  0.22724130  0.53961620  0.16842864    -0.12200
C1341       C  0.26188732  0.54894336  0.07635962     0.25800
C1342       C  0.25132649  0.56775308  0.07369089    -0.22300
C1343       C  0.23967868  0.57097415  0.05558737     0.20700
C1344       C  0.23817499  0.55536784  0.04057541     0.25800
C1345       C  0.24899383  0.53662344  0.04309392    -0.22200
C1346       C  0.26099655  0.53360415  0.06103259     0.20700
F1347       F  0.27146788  0.51558871  0.06389749    -0.12200
F1348       F  0.27324552  0.54561143  0.09373072    -0.14600
F1349       F  0.22653768  0.55872759  0.02337501    -0.14600
F1350       F  0.22915158  0.58897659  0.05290515    -0.12200
C1351       C  0.28360116  0.37940830  0.05902668     0.25800
C1352       C  0.26679745  0.36948892  0.06865864    -0.22300
C1353       C  0.26160366  0.34917378  0.06288156     0.20700
C1354       C  0.27293411  0.33892072  0.04761971     0.25800
C1355       C  0.28975734  0.34884079  0.03776024    -0.22200
C1356       C  0.29486583  0.36928685  0.04358224     0.20700
F1357       F  0.31096218  0.37950261  0.03460303    -0.12200
F1358       F  0.28998889  0.39839093  0.06538295    -0.14600
F1359       F  0.26761902  0.31911302  0.04290583    -0.14600
F1360       F  0.24564888  0.33908962  0.07228299    -0.12200
C1361       C  0.20965193  0.42383455  0.10662641     0.25800
C1362       C  0.22919898  0.41856215  0.11455479    -0.22300
C1363       C  0.23702631  0.42896195  0.13185984     0.20700
C1364       C  0.22519178  0.44407197  0.14167137     0.25800
C1365       C  0.20503129  0.44877234  0.13452357    -0.22200
C1366       C  0.19758675  0.43884944  0.11653726     0.20700
F1367       F  0.17834628  0.44296173  0.10901350    -0.12200
F1368       F  0.20171634  0.41352489  0.09010217    -0.14600
F1369       F  0.23347786  0.45384140  0.15835938    -0.14600
F1370       F  0.25604854  0.42412633  0.13952824    -0.12200
C1371       C  0.25996072  0.43197250  0.07374651     0.25800
C1372       C  0.24787592  0.41403089  0.07123376    -0.22300
C1373       C  0.23538627  0.41202327  0.05353047     0.20700
C1374       C  0.23479323  0.42791228  0.03865992     0.25800
C1375       C  0.24727398  0.44569649  0.04097099    -0.22200
C1376       C  0.25997305  0.44748426  0.05858414     0.20700
F1377       F  0.27201251  0.46453621  0.06135410    -0.12200
F1378       F  0.27208169  0.43419672  0.09078500    -0.14600
F1379       F  0.22240039  0.42574128  0.02179876    -0.14600
F1380       F  0.22346997  0.39487173  0.05094174    -0.12200
C1381       C  0.29508313  0.61320632  0.92223795     0.25800
C1382       C  0.27353331  0.61170724  0.92509581    -0.22300
C1383       C  0.26442609  0.61945297  0.94319506     0.20700
C1384       C  0.27661840  0.62964193  0.95785868     0.25800
C1385       C  0.29811841  0.63183456  0.95472516    -0.22200
C1386       C  0.30741427  0.62289677  0.93719393     0.20700
F1387       F  0.32818251  0.62461975  0.93398205    -0.12200
F1388       F  0.30401054  0.60592037  0.90463636    -0.14600
F1389       F  0.26741493  0.63757277  0.97504114    -0.14600
F1390       F  0.24357354  0.61817870  0.94606811    -0.12200
C1391       C  0.23571457  0.55384668  0.87337867     0.25800
C1392       C  0.22539207  0.57148079  0.88074443    -0.22300
C1393       C  0.20424208  0.57429753  0.87633995     0.20700
C1394       C  0.19360445  0.55982930  0.86423222     0.25800
C1395       C  0.20420738  0.54271778  0.85599088    -0.22200
C1396       C  0.22522464  0.53961687  0.86092574     0.20700
F1397       F  0.23562891  0.52289675  0.85350499    -0.12200
F1398       F  0.25627338  0.55111793  0.87712976    -0.14600
F1399       F  0.17331605  0.56313193  0.85957958    -0.14600
F1400       F  0.19411735  0.59139188  0.88324894    -0.12200
C1401       C  0.23068479  0.56628664  0.93340018     0.25800
C1402       C  0.24894995  0.57088682  0.92249312    -0.22300
C1403       C  0.26705106  0.55963989  0.92682342     0.20700
C1404       C  0.26691028  0.54390699  0.94179397     0.25800
C1405       C  0.24858102  0.53917233  0.95287431    -0.22200
C1406       C  0.23046299  0.55067167  0.94847834     0.20700
F1407       F  0.21256027  0.54714800  0.95902230    -0.12200
F1408       F  0.21315914  0.57735977  0.92977320    -0.14600
F1409       F  0.28467888  0.53311667  0.94513179    -0.14600
F1410       F  0.28477286  0.56362051  0.91615945    -0.12200
C1411       C  0.28131353  0.38380806  0.92970797     0.25800
C1412       C  0.26378795  0.37455912  0.92063411    -0.22300
C1413       C  0.25799490  0.35450230  0.92672203     0.20700
C1414       C  0.26982408  0.34355193  0.94109034     0.25800
C1415       C  0.28772439  0.35252397  0.94992598    -0.22200
C1416       C  0.29303382  0.37300877  0.94440716     0.20700
F1417       F  0.30982639  0.38253022  0.95284048    -0.12200
F1418       F  0.28797429  0.40272631  0.92341891    -0.14600
F1419       F  0.26392885  0.32391388  0.94583800    -0.14600
F1420       F  0.24101191  0.34525351  0.91834245    -0.12200
C1421       C  0.20989115  0.43251977  0.88116353     0.25800
C1422       C  0.22887245  0.42505487  0.87359693    -0.22300
C1423       C  0.23736034  0.43361813  0.85555845     0.20700
C1424       C  0.22678210  0.44901425  0.84474638     0.25800
C1425       C  0.20723361  0.45607795  0.85168920    -0.22200
C1426       C  0.19912478  0.44793750  0.87032676     0.20700
F1427       F  0.18054926  0.45443210  0.87784579    -0.12200
F1428       F  0.20118059  0.42402822  0.89833342    -0.14600
F1429       F  0.23558580  0.45653060  0.82716640    -0.14600
F1430       F  0.25577431  0.42660283  0.84807819    -0.12200
C1431       C  0.25925728  0.45172836  0.93228244     0.25800
C1432       C  0.24705560  0.44890236  0.95014641    -0.22300
C1433       C  0.23441576  0.43119754  0.95173985     0.20700
C1434       C  0.23422035  0.41641297  0.93587408     0.25800
C1435       C  0.24617876  0.41937893  0.91794738    -0.22200
C1436       C  0.25853300  0.43723119  0.91614258     0.20700
F1437       F  0.27037123  0.44021140  0.89900172    -0.12200
F1438       F  0.27153562  0.46872886  0.93030029    -0.14600
F1439       F  0.22216882  0.39926938  0.93781750    -0.14600
F1440       F  0.22268733  0.42796698  0.96892024    -0.12200
C1441       C  0.62002616  0.25996059  0.04354359     0.25800
C1442       C  0.61355302  0.26972950  0.06181456    -0.22300
C1443       C  0.61677412  0.29108398  0.06438603     0.20700
C1444       C  0.62686834  0.30249666  0.04897601     0.25800
C1445       C  0.63429840  0.29249161  0.03114847    -0.22200
C1446       C  0.63054199  0.27123072  0.02837315     0.20700
F1447       F  0.63749509  0.26130456  0.01117606    -0.12200
F1448       F  0.61737500  0.23924530  0.04103010    -0.14600
F1449       F  0.63065568  0.32296132  0.05208475    -0.14600
F1450       F  0.61073524  0.30068977  0.08209229    -0.12200
C1451       C  0.56015047  0.18868380  0.11921488     0.25800
C1452       C  0.54266541  0.19870987  0.12753270    -0.22300
C1453       C  0.53974153  0.21997745  0.12374877     0.20700
C1454       C  0.55437600  0.23116243  0.11236112     0.25800
C1455       C  0.57232133  0.22136346  0.10502330    -0.22200
C1456       C  0.57506672  0.20004789  0.10826959     0.20700
F1457       F  0.59243962  0.19041001  0.10127745    -0.12200
F1458       F  0.56334349  0.16818528  0.12265839    -0.14600
F1459       F  0.55161892  0.25181542  0.10947143    -0.14600
F1460       F  0.52277243  0.22996815  0.13122271    -0.12200
C1461       C  0.56802573  0.22681291  0.05277013     0.25800
C1462       C  0.57270701  0.24506812  0.06357586    -0.22300
C1463       C  0.56173868  0.26322822  0.05895162     0.20700
C1464       C  0.54632745  0.26323154  0.04367748     0.25800
C1465       C  0.54167135  0.24500082  0.03249778    -0.22200
C1466       C  0.55271905  0.22673270  0.03734715     0.20700
F1467       F  0.54904893  0.20882019  0.02695904    -0.12200
F1468       F  0.57875989  0.20918615  0.05678338    -0.14600
F1469       F  0.53583191  0.28109962  0.04008046    -0.14600
F1470       F  0.56572897  0.28091731  0.06958537    -0.12200
C1471       C  0.37226045  0.25315624  0.04329506     0.25800
C1472       C  0.37705685  0.26121925  0.06287411    -0.22300
C1473       C  0.37173268  0.28173286  0.06774355     0.20700
C1474       C  0.36164692  0.29410163  0.05314229     0.25800
C1475       C  0.35623602  0.28581899  0.03380592    -0.22200
C1476       C  0.36167103  0.26533173  0.02890143     0.20700
F1477       F  0.35658114  0.25712000  0.01021768    -0.12200
F1478       F  0.37686412  0.23319448  0.03854376    -0.14600
F1479       F  0.35621054  0.31377219  0.05822983    -0.14600
F1480       F  0.37600331  0.28960995  0.08676780    -0.12200
C1481       C  0.42307344  0.19386823  0.10620111     0.25800
C1482       C  0.42360154  0.21538089  0.10324390    -0.22300
C1483       C  0.44036503  0.22694621  0.11087200     0.20700
C1484       C  0.45597060  0.21722183  0.12229709     0.25800
C1485       C  0.45516768  0.19573351  0.12584154    -0.22200
C1486       C  0.43892414  0.18402826  0.11720008     0.20700
F1487       F  0.43769899  0.16329425  0.12053739    -0.12200
F1488       F  0.40678943  0.18255162  0.09909108    -0.14600
F1489       F  0.47168596  0.22883437  0.13017459    -0.14600
F1490       F  0.44089549  0.24783063  0.10839538    -0.12200
C1491       C  0.44446374  0.26011433  0.04241391     0.25800
C1492       C  0.45060043  0.24247808  0.03099189    -0.22300
C1493       C  0.44074234  0.22338725  0.03533728     0.20700
C1494       C  0.42555549  0.22196203  0.05081355     0.25800
C1495       C  0.41969610  0.23949899  0.06218590    -0.22200
C1496       C  0.42911548  0.25860044  0.05777100     0.20700
F1497       F  0.42377814  0.27570602  0.06875428    -0.12200
F1498       F  0.45352699  0.27881013  0.03905718    -0.14600
F1499       F  0.41615669  0.20348575  0.05443617    -0.14600
F1500       F  0.44556108  0.20603289  0.02448771    -0.12200
C1501       C  0.62088979  0.30010226  0.93550889     0.25800
C1502       C  0.64008486  0.29273594  0.94309561    -0.22300
C1503       C  0.64781607  0.27380510  0.93529627     0.20700
C1504       C  0.63682909  0.26280253  0.92025239     0.25800
C1505       C  0.61780893  0.27021803  0.91278141    -0.22200
C1506       C  0.60985763  0.28888567  0.92052640     0.20700
F1507       F  0.59194358  0.29680734  0.91281454    -0.12200
F1508       F  0.61286026  0.31831185  0.94229183    -0.14600
F1509       F  0.64494127  0.24491337  0.91270295    -0.14600
F1510       F  0.66620454  0.26594076  0.94190542    -0.12200
C1511       C  0.56506416  0.21231794  0.87231803     0.25800
C1512       C  0.56866529  0.23284909  0.86617358    -0.22300
C1513       C  0.55731582  0.24121082  0.84969998     0.20700
C1514       C  0.54290206  0.22908584  0.83904058     0.25800
C1515       C  0.53975754  0.20812455  0.84449760    -0.22200
C1516       C  0.55073040  0.20000493  0.86157708     0.20700
F1517       F  0.54829060  0.17993791  0.86738714    -0.12200
F1518       F  0.57634369  0.20382596  0.88790724    -0.14600
F1519       F  0.53221665  0.23793220  0.82322574    -0.14600
F1520       F  0.56061093  0.26108056  0.84359814    -0.12200
C1521       C  0.55501600  0.26241933  0.90842075     0.25800
C1522       C  0.57344364  0.25096265  0.91018827    -0.22300
C1523       C  0.57647633  0.23838033  0.92766081     0.20700
C1524       C  0.56113358  0.23706585  0.94306420     0.25800
C1525       C  0.54278525  0.24879774  0.94145273    -0.22200
C1526       C  0.53993036  0.26157513  0.92404509     0.20700
F1527       F  0.52221768  0.27275552  0.92188368    -0.12200
F1528       F  0.55177363  0.27455774  0.89157565    -0.14600
F1529       F  0.56435021  0.22465196  0.95972849    -0.14600
F1530       F  0.59411719  0.22705350  0.92950649    -0.12200
C1531       C  0.34897800  0.26894464  0.94000443     0.25800
C1532       C  0.35549852  0.28883331  0.94637446    -0.22300
C1533       C  0.37348904  0.29746522  0.93727480     0.20700
C1534       C  0.38415719  0.28674928  0.92171724     0.25800
C1535       C  0.37700113  0.26737336  0.91500956    -0.22200
C1536       C  0.35955697  0.25846604  0.92437650     0.20700
F1537       F  0.35248212  0.23969407  0.91800665    -0.12200
F1538       F  0.33215450  0.25960948  0.94861096    -0.14600
F1539       F  0.40076220  0.29579169  0.91240917    -0.14600
F1540       F  0.38042560  0.31652625  0.94286944    -0.12200
C1541       C  0.43276966  0.23875449  0.84751279     0.25800
C1542       C  0.42367881  0.23103578  0.86563584    -0.22300
C1543       C  0.42959798  0.21153676  0.87314637     0.20700
C1544       C  0.44420160  0.19966411  0.86235906     0.25800
C1545       C  0.45311496  0.20717571  0.84383172    -0.22200
C1546       C  0.44742170  0.22707175  0.83676019     0.20700
F1547       F  0.45578459  0.23528560  0.81928037    -0.12200
F1548       F  0.42715031  0.25759160  0.84001860    -0.14600
F1549       F  0.44909453  0.18061150  0.86979753    -0.14600
F1550       F  0.42036436  0.20345895  0.89023979    -0.12200
C1551       C  0.41896704  0.23502033  0.92700123     0.25800
C1552       C  0.42076021  0.24857778  0.91010813    -0.22300
C1553       C  0.43819091  0.26154161  0.90859695     0.20700
C1554       C  0.45358060  0.26113202  0.92392827     0.25800
C1555       C  0.45204708  0.24723443  0.94066375    -0.22200
C1556       C  0.43464783  0.23410538  0.94201270     0.20700
F1557       F  0.43254882  0.22085499  0.95821214    -0.12200
F1558       F  0.40210148  0.22252660  0.92875685    -0.14600
F1559       F  0.47017979  0.27400804  0.92222220    -0.14600
F1560       F  0.44005336  0.27481170  0.89239819    -0.12200
C1561       C  0.63621912  0.06050164  0.72737198     0.25800
C1562       C  0.61771201  0.06912438  0.72001781    -0.22300
C1563       C  0.60865452  0.06131108  0.70188705     0.20700
C1564       C  0.61831784  0.04534484  0.69089628     0.25800
C1565       C  0.63739797  0.03710545  0.69777489    -0.22200
C1566       C  0.64596429  0.04460524  0.71646732     0.20700
F1567       F  0.66403361  0.03695488  0.72411017    -0.12200
F1568       F  0.64503433  0.06773292  0.74505753    -0.14600
F1569       F  0.60917702  0.03838052  0.67328249    -0.14600
F1570       F  0.59108635  0.06992675  0.69414175    -0.12200
C1571       C  0.56237568  0.11021170  0.77389311     0.25800
C1572       C  0.56992641  0.11833539  0.75519473    -0.22300
C1573       C  0.56185940  0.13699760  0.74763132     0.20700
C1574       C  0.54711960  0.14797025  0.75899656     0.25800
C1575       C  0.54016729  0.14048319  0.77833763    -0.22200
C1576       C  0.54751580  0.12110624  0.78533365     0.20700
F1577       F  0.54079379  0.11285865  0.80348671    -0.12200
F1578       F  0.57029239  0.09240749  0.78176895    -0.14600
F1579       F  0.54002725  0.16612883  0.75110361    -0.14600
F1580       F  0.56864355  0.14484923  0.72931833    -0.12200
C1581       C  0.57665108  0.05648078  0.75204411     0.25800
C1582       C  0.57413105  0.07349286  0.73876177    -0.22300
C1583       C  0.55649972  0.07465795  0.72608226     0.20700
C1584       C  0.54154757  0.05891627  0.72660782     0.25800
C1585       C  0.54371760  0.04218775  0.74039097    -0.22200
C1586       C  0.56138181  0.04108640  0.75312269     0.20700
F1587       F  0.56404562  0.02486748  0.76624660    -0.12200
F1588       F  0.59373817  0.05509394  0.76425085    -0.14600
F1589       F  0.52469685  0.06026103  0.71405540    -0.14600
F1590       F  0.55406730  0.09086170  0.71291916    -0.12200
C1591       C  0.35804684  0.06268997  0.72166914     0.25800
C1592       C  0.37855536  0.06840377  0.71695397    -0.22300
C1593       C  0.38939198  0.05750805  0.70155269     0.20700
C1594       C  0.37984520  0.04112455  0.69104273     0.25800
C1595       C  0.35912460  0.03559908  0.69550226    -0.22200
C1596       C  0.34840598  0.04651480  0.71107820     0.20700
F1597       F  0.32830671  0.04207718  0.71567819    -0.12200
F1598       F  0.34714322  0.07307246  0.73638075    -0.14600
F1599       F  0.39086030  0.03088970  0.67632598    -0.14600
F1600       F  0.40875661  0.06344184  0.69576337    -0.12200
C1601       C  0.43395955  0.13695424  0.74587048     0.25800
C1602       C  0.42535901  0.11838271  0.75311901    -0.22300
C1603       C  0.43174322  0.11043649  0.77231663     0.20700
C1604       C  0.44607492  0.12135073  0.78444708     0.25800
C1605       C  0.45413545  0.14051337  0.77758697    -0.22200
C1606       C  0.44816539  0.14792096  0.75789276     0.20700
F1607       F  0.45579088  0.16596936  0.75019750    -0.12200
F1608       F  0.42832963  0.14466825  0.72712603    -0.14600
F1609       F  0.45158970  0.11334727  0.80308937    -0.14600
F1610       F  0.42324601  0.09273362  0.77988101    -0.12200
C1611       C  0.45675526  0.06070652  0.72914727     0.25800
C1612       C  0.45331143  0.04285339  0.74111984    -0.22300
C1613       C  0.43414935  0.04029575  0.75124415     0.20700
C1614       C  0.41854279  0.05529102  0.74918206     0.25800
C1615       C  0.42212958  0.07328665  0.73746739    -0.22200
C1616       C  0.44137877  0.07592612  0.72756526     0.20700
F1617       F  0.44498219  0.09302721  0.71587077    -0.12200
F1618       F  0.47514021  0.06351357  0.71922415    -0.14600
F1619       F  0.40003834  0.05246080  0.75884051    -0.14600
F1620       F  0.43037792  0.02300517  0.76262108    -0.12200
C1621       C  0.62063135  0.93998646  0.72999954     0.25800
C1622       C  0.61526748  0.92050687  0.72203787    -0.22300
C1623       C  0.61890897  0.91606230  0.70104791     0.20700
C1624       C  0.62830725  0.93084211  0.68823907     0.25800
C1625       C  0.63468152  0.94990477  0.69652051    -0.22200
C1626       C  0.63043437  0.95454402  0.71735458     0.20700
F1627       F  0.63610959  0.97309364  0.72551520    -0.12200
F1628       F  0.61750952  0.94443349  0.75031526    -0.14600
F1629       F  0.63224612  0.92613409  0.66812789    -0.14600
F1630       F  0.61374251  0.89727066  0.69313046    -0.12200
C1631       C  0.57634315  0.88015178  0.79503723     0.25800
C1632       C  0.57372081  0.88135682  0.77351087    -0.22300
C1633       C  0.55537207  0.87404468  0.76443719     0.20700
C1634       C  0.54010112  0.86477402  0.77667915     0.25800
C1635       C  0.54283909  0.86310103  0.79822433    -0.22200
C1636       C  0.56081642  0.87137468  0.80740363     0.20700
F1637       F  0.56384641  0.86992171  0.82815877    -0.12200
F1638       F  0.59411711  0.88708930  0.80396995    -0.14600
F1639       F  0.52271351  0.85725458  0.76746555    -0.14600
F1640       F  0.55273546  0.87496186  0.74359372    -0.12200
C1641       C  0.57009749  0.93257389  0.76543368     0.25800
C1642       C  0.57485928  0.92114705  0.74757858    -0.22300
C1643       C  0.56407086  0.92525381  0.72919268     0.20700
C1644       C  0.54864449  0.94049670  0.72861483     0.25800
C1645       C  0.54367709  0.95206090  0.74651823    -0.22200
C1646       C  0.55472037  0.94791112  0.76495291     0.20700
F1647       F  0.55097429  0.95889996  0.78248135    -0.12200
F1648       F  0.58078401  0.92921090  0.78322315    -0.14600
F1649       F  0.53842829  0.94366955  0.71051143    -0.14600
F1650       F  0.56819433  0.91410314  0.71186202    -0.12200
C1651       C  0.37873479  0.91420846  0.70406396     0.25800
C1652       C  0.38191341  0.91967886  0.72489347    -0.22300
C1653       C  0.37715746  0.93979114  0.73156573     0.20700
C1654       C  0.36828521  0.95392901  0.71783611     0.25800
C1655       C  0.36434685  0.94823153  0.69720491    -0.22200
C1656       C  0.37022003  0.92853369  0.69018476     0.20700
F1657       F  0.36654919  0.92279051  0.67029879    -0.12200
F1658       F  0.38355853  0.89488676  0.69731949    -0.14600
F1659       F  0.36299154  0.97306925  0.72479099    -0.14600
F1660       F  0.37996548  0.94534135  0.75165158    -0.12200
C1661       C  0.41910187  0.87599404  0.79851135     0.25800
C1662       C  0.42323640  0.88197531  0.77796072    -0.22300
C1663       C  0.44334102  0.87941740  0.76990542     0.20700
C1664       C  0.45890689  0.87053526  0.78203037     0.25800
C1665       C  0.45463532  0.86412311  0.80235316    -0.22200
C1666       C  0.43478529  0.86726525  0.81071232     0.20700
F1667       F  0.43030396  0.86077801  0.83021440    -0.12200
F1668       F  0.39972577  0.87809157  0.80653810    -0.14600
F1669       F  0.47806791  0.86763430  0.77374734    -0.14600
F1670       F  0.44757007  0.88410472  0.74985486    -0.12200
C1671       C  0.44200330  0.94870173  0.76703678     0.25800
C1672       C  0.45235270  0.95279317  0.74816539    -0.22300
C1673       C  0.44689892  0.94106830  0.73054822     0.20700
C1674       C  0.43183285  0.92554318  0.73185607     0.25800
C1675       C  0.42175653  0.92142450  0.75066755    -0.22200
C1676       C  0.42688083  0.93313474  0.76822774     0.20700
F1677       F  0.41686662  0.92975910  0.78642218    -0.12200
F1678       F  0.44623074  0.95991450  0.78431674    -0.14600
F1679       F  0.42749183  0.91400974  0.71483479    -0.14600
F1680       F  0.45635875  0.94428991  0.71203234    -0.12200
C1681       C  0.61686398  0.71038156  0.06761807     0.25800
C1682       C  0.62491597  0.72959244  0.07370700    -0.22300
C1683       C  0.64322328  0.73702146  0.06462180     0.20700
C1684       C  0.65348704  0.72536727  0.04960379     0.25800
C1685       C  0.64576024  0.70578850  0.04366032    -0.22200
C1686       C  0.62715929  0.69854307  0.05272337     0.20700
F1687       F  0.61916755  0.67973120  0.04771636    -0.12200
F1688       F  0.59975900  0.70246440  0.07703287    -0.14600
F1689       F  0.67110668  0.73325611  0.04113445    -0.14600
F1690       F  0.65138001  0.75548004  0.07062092    -0.12200
C1691       C  0.56817782  0.75763301  0.14028211     0.25800
C1692       C  0.57675247  0.76536533  0.12191806    -0.22300
C1693       C  0.57006237  0.78446551  0.11410827     0.20700
C1694       C  0.55507209  0.79592340  0.12475624     0.25800
C1695       C  0.54655442  0.78837702  0.14345255    -0.22200
C1696       C  0.55318690  0.76893957  0.15095529     0.20700
F1697       F  0.54540508  0.76082866  0.16874824    -0.12200
F1698       F  0.57464428  0.73919306  0.14808089    -0.14600
F1699       F  0.54940562  0.81463101  0.11700098    -0.14600
F1700       F  0.57891037  0.79258510  0.09682891    -0.12200
C1701       C  0.56317829  0.73356189  0.07997237     0.25800
C1702       C  0.58028677  0.74691028  0.07782615    -0.22300
C1703       C  0.58158879  0.75972059  0.06030533     0.20700
C1704       C  0.56591853  0.75934237  0.04521854     0.25800
C1705       C  0.54905358  0.74555119  0.04702595    -0.22200
C1706       C  0.54785889  0.73261403  0.06453047     0.20700
F1707       F  0.53153309  0.71951632  0.06696185    -0.12200
F1708       F  0.56155211  0.72122577  0.09691301    -0.14600
F1709       F  0.56741097  0.77217595  0.02862036    -0.14600
F1710       F  0.59789603  0.77286411  0.05806908    -0.12200
C1711       C  0.35245039  0.71457129  0.05328547     0.25800
C1712       C  0.36185942  0.69769604  0.04306971    -0.22300
C1713       C  0.38226429  0.69205619  0.04863339     0.20700
C1714       C  0.39262070  0.70242786  0.06455462     0.25800
C1715       C  0.38299076  0.71886991  0.07498326    -0.22200
C1716       C  0.36294484  0.72501937  0.06905999     0.20700
F1717       F  0.35337081  0.74104099  0.07878768    -0.12200
F1718       F  0.33286150  0.72069483  0.04850418    -0.14600
F1719       F  0.41157304  0.69552764  0.07055612    -0.14600
F1720       F  0.39218738  0.67624005  0.03895526    -0.12200
C1721       C  0.44409980  0.74773206  0.13856692     0.25800
C1722       C  0.43213309  0.75501016  0.12203247    -0.22300
C1723       C  0.43496617  0.77528864  0.11479301     0.20700
C1724       C  0.44899113  0.78856411  0.12465395     0.25800
C1725       C  0.46042995  0.78165378  0.14192959    -0.22200
C1726       C  0.45833065  0.76080962  0.14829191     0.20700
F1727       F  0.46982941  0.75304299  0.16410870    -0.12200
F1728       F  0.44164117  0.72804681  0.14558920    -0.14600
F1729       F  0.45061917  0.80838920  0.11783000    -0.14600
F1730       F  0.42315321  0.78263844  0.09901698    -0.12200
C1731       C  0.43942528  0.75044671  0.04522719     0.25800
C1732       C  0.45819412  0.73947816  0.04708443    -0.22300
C1733       C  0.46150162  0.72702261  0.06463673     0.20700
C1734       C  0.44651716  0.72604327  0.08034379     0.25800
C1735       C  0.42772119  0.73691338  0.07840961    -0.22200
C1736       C  0.42419265  0.74894925  0.06066485     0.20700
F1737       F  0.40616447  0.75959984  0.05858007    -0.12200
F1738       F  0.43570378  0.76228604  0.02825620    -0.14600
F1739       F  0.45012706  0.71419755  0.09732877    -0.14600
F1740       F  0.47947936  0.71626753  0.06681854    -0.12200
C1741       C  0.63807177  0.74229636  0.94229813     0.25800
C1742       C  0.62245412  0.73415353  0.92961018    -0.22300
C1743       C  0.61678570  0.71327541  0.93152921     0.20700
C1744       C  0.62727710  0.70037425  0.94542611     0.25800
C1745       C  0.64364684  0.70823797  0.95760102    -0.22200
C1746       C  0.64852546  0.72951697  0.95628636     0.20700
F1747       F  0.66347910  0.73800517  0.96844510    -0.12200
F1748       F  0.64354259  0.76255923  0.94072686    -0.14600
F1749       F  0.62204878  0.68001122  0.94620970    -0.14600
F1750       F  0.60190723  0.70511658  0.91907021    -0.12200
C1751       C  0.56850941  0.76747091  0.86281613     0.25800
C1752       C  0.57620269  0.77360149  0.88217482    -0.22300
C1753       C  0.56835311  0.79154187  0.89156277     0.20700
C1754       C  0.55303020  0.80328490  0.88168926     0.25800
C1755       C  0.54538490  0.79736100  0.86207909    -0.22200
C1756       C  0.55327771  0.77916398  0.85284145     0.20700
F1757       F  0.54661738  0.77274725  0.83395134    -0.12200
F1758       F  0.57596411  0.75018137  0.85342095    -0.14600
F1759       F  0.54603019  0.82065552  0.89124563    -0.14600
F1760       F  0.57633939  0.79838648  0.90975430    -0.12200
C1761       C  0.57998306  0.76547907  0.94356655     0.25800
C1762       C  0.57899136  0.75321650  0.92566369    -0.22300
C1763       C  0.56239241  0.73937023  0.92310449     0.20700
C1764       C  0.54713582  0.73749420  0.93848982     0.25800
C1765       C  0.54804929  0.74984568  0.95643524    -0.22200
C1766       C  0.56446595  0.76405891  0.95869991     0.20700
F1767       F  0.56580016  0.77612595  0.97586802    -0.12200
F1768       F  0.59594277  0.77895526  0.94622711    -0.14600
F1769       F  0.53124821  0.72394382  0.93567290    -0.14600
F1770       F  0.56126214  0.72741639  0.90585950    -0.12200
C1771       C  0.38036388  0.73116029  0.94652569     0.25800
C1772       C  0.38407602  0.72392091  0.92637333    -0.22300
C1773       C  0.37801011  0.70371942  0.92094297     0.20700
C1774       C  0.36824557  0.69091826  0.93548466     0.25800
C1775       C  0.36386093  0.69844762  0.95538024    -0.22200
C1776       C  0.37011523  0.71856285  0.96088181     0.20700
F1777       F  0.36597316  0.72609099  0.98008047    -0.12200
F1778       F  0.38548097  0.75084564  0.95189228    -0.14600
F1779       F  0.36204689  0.67162392  0.92982972    -0.14600
F1780       F  0.38106169  0.69663803  0.90137992    -0.12200
C1781       C  0.42314501  0.79623293  0.88323735     0.25800
C1782       C  0.42644148  0.77500841  0.88682738    -0.22300
C1783       C  0.44539668  0.76598714  0.88104791     0.20700
C1784       C  0.46049936  0.77782419  0.87094989     0.25800
C1785       C  0.45697936  0.79890350  0.86687467    -0.22200
C1786       C  0.43848093  0.80819839  0.87360624     0.20700
F1787       F  0.43480200  0.82855260  0.86977671    -0.12200
F1788       F  0.40486599  0.80521995  0.88860905    -0.14600
F1789       F  0.47847502  0.76866319  0.86488471    -0.14600
F1790       F  0.44874361  0.74543719  0.88397186    -0.12200
C1791       C  0.43646114  0.72880554  0.92973833     0.25800
C1792       C  0.42594497  0.74748227  0.92601155    -0.22300
C1793       C  0.43123252  0.76505998  0.93757165     0.20700
C1794       C  0.44666879  0.76408041  0.95274592     0.25800
C1795       C  0.45741928  0.74540486  0.95666281    -0.22200
C1796       C  0.45213632  0.72775103  0.94483330     0.20700
F1797       F  0.46230807  0.70954778  0.94756454    -0.12200
F1798       F  0.43187134  0.71174187  0.91834378    -0.14600
F1799       F  0.45080529  0.78149675  0.96377841    -0.14600
F1800       F  0.42097241  0.78315033  0.93448602    -0.12200
C1801       C  0.64342548  0.04951357  0.27307992     0.25800
C1802       C  0.63627300  0.04355333  0.29287969    -0.22300
C1803       C  0.61714574  0.05149468  0.30002398     0.20700
C1804       C  0.60598916  0.06567150  0.28806417     0.25800
C1805       C  0.61366352  0.07208684  0.26880908    -0.22200
C1806       C  0.63222305  0.06369976  0.26124657     0.20700
F1807       F  0.63975667  0.06968278  0.24252061    -0.12200
F1808       F  0.66140399  0.04190791  0.26515679    -0.14600
F1809       F  0.58838919  0.07413718  0.29591104    -0.14600
F1810       F  0.60947799  0.04614842  0.31887097    -0.12200
C1811       C  0.55081249  0.12111470  0.19541477     0.25800
C1812       C  0.54018378  0.13918721  0.20157166    -0.22300
C1813       C  0.54198471  0.14594855  0.22227348     0.20700
C1814       C  0.55490970  0.13548377  0.23609547     0.25800
C1815       C  0.56603751  0.11802861  0.22960593    -0.22200
C1816       C  0.56366332  0.11068664  0.20933621     0.20700
F1817       F  0.57493529  0.09429084  0.20255570    -0.12200
F1818       F  0.54949662  0.11392883  0.17569981    -0.14600
F1819       F  0.55708754  0.14274582  0.25571262    -0.14600
F1820       F  0.53137919  0.16274473  0.22920697    -0.12200
C1821       C  0.55655150  0.04269776  0.23438745     0.25800
C1822       C  0.53990395  0.04253876  0.24852918    -0.22300
C1823       C  0.53841733  0.05858358  0.26323786     0.20700
C1824       C  0.55302669  0.07469160  0.26343881     0.25800
C1825       C  0.56978281  0.07459211  0.24954366    -0.22200
C1826       C  0.57159501  0.05837829  0.23520373     0.20700
F1827       F  0.58790500  0.05787121  0.22190926    -0.12200
F1828       F  0.55856027  0.02736469  0.22014173    -0.14600
F1829       F  0.55105559  0.09027678  0.27739877    -0.14600
F1830       F  0.52255053  0.05892900  0.27709636    -0.12200
C1831       C  0.38495238  0.06670741  0.28343796     0.25800
C1832       C  0.37857364  0.07242402  0.26350206    -0.22300
C1833       C  0.36135214  0.06274355  0.25452669     0.20700
C1834       C  0.35020393  0.04781212  0.26551104     0.25800
C1835       C  0.35597721  0.04245087  0.28592020    -0.22200
C1836       C  0.37376894  0.05183219  0.29460834     0.20700
F1837       F  0.38005032  0.04714498  0.31411754    -0.12200
F1838       F  0.40138428  0.07627241  0.29248598    -0.14600
F1839       F  0.33365363  0.03879637  0.25610246    -0.14600
F1840       F  0.35510044  0.06808048  0.23516527    -0.12200
C1841       C  0.43911135  0.13422018  0.23240585     0.25800
C1842       C  0.42712028  0.11788658  0.22461109    -0.22300
C1843       C  0.43022799  0.11106346  0.20424194     0.20700
C1844       C  0.44470366  0.12098628  0.19149449     0.25800
C1845       C  0.45619660  0.13801191  0.19895712    -0.22200
C1846       C  0.45366306  0.14411976  0.21978124     0.20700
F1847       F  0.46521999  0.15968731  0.22799424    -0.12200
F1848       F  0.43638291  0.14084866  0.25217899    -0.14600
F1849       F  0.44676984  0.11446994  0.17161201    -0.14600
F1850       F  0.41832262  0.09565308  0.19627648    -0.12200
C1851       C  0.45235517  0.05809073  0.25957173     0.25800
C1852       C  0.45110274  0.04171194  0.24523461    -0.22300
C1853       C  0.43535755  0.04207796  0.23009909     0.20700
C1854       C  0.42077330  0.05819499  0.22979363     0.25800
C1855       C  0.42214353  0.07446664  0.24412071    -0.22200
C1856       C  0.43814380  0.07445710  0.25880930     0.20700
F1857       F  0.43980370  0.09027672  0.27254172    -0.12200
F1858       F  0.46772117  0.05855271  0.27395064    -0.14600
F1859       F  0.40532756  0.05801863  0.21551266    -0.14600
F1860       F  0.43380713  0.02661094  0.21593709    -0.12200
C1861       C  0.61057995  0.93309194  0.28460999     0.25800
C1862       C  0.61919655  0.92765160  0.26541615    -0.22300
C1863       C  0.63743423  0.93739148  0.25868663     0.20700
C1864       C  0.64721396  0.95215256  0.27107568     0.25800
C1865       C  0.63903902  0.95732097  0.29070141    -0.22200
C1866       C  0.62036511  0.94782502  0.29715991     0.20700
F1867       F  0.61182590  0.95225130  0.31586770    -0.12200
F1868       F  0.59340532  0.92322776  0.29180008    -0.14600
F1869       F  0.66486344  0.96111768  0.26382824    -0.14600
F1870       F  0.64599327  0.93232303  0.24014044    -0.12200
C1871       C  0.56550581  0.85932797  0.23590768     0.25800
C1872       C  0.57182931  0.87883366  0.22879482    -0.22300
C1873       C  0.56240888  0.88734493  0.21115373     0.20700
C1874       C  0.54735857  0.87605612  0.20028164     0.25800
C1875       C  0.54163477  0.85598564  0.20685919    -0.22200
C1876       C  0.55057363  0.84801776  0.22515847     0.20700
F1877       F  0.54548195  0.82893812  0.23243691    -0.12200
F1878       F  0.57430113  0.85092843  0.25307759    -0.14600
F1879       F  0.53886550  0.88459806  0.18304641    -0.14600
F1880       F  0.56867749  0.90598282  0.20368614    -0.12200
C1881       C  0.56039159  0.95562200  0.23598554     0.25800
C1882       C  0.54266412  0.95245826  0.24832164    -0.22300
C1883       C  0.54127989  0.93446336  0.26054286     0.20700
C1884       C  0.55713948  0.91960282  0.25993958     0.25800
C1885       C  0.57485583  0.92288010  0.24768106    -0.22200
C1886       C  0.57649333  0.94108982  0.23593374     0.20700
F1887       F  0.59351549  0.94446429  0.22399799    -0.12200
F1888       F  0.56225492  0.97298578  0.22425236    -0.14600
F1889       F  0.55540602  0.90211955  0.27148483    -0.14600
F1890       F  0.52431166  0.93100452  0.27254850    -0.12200
C1891       C  0.35765602  0.93078616  0.25532153     0.25800
C1892       C  0.37661845  0.92325093  0.26281523    -0.22300
C1893       C  0.38541926  0.93210259  0.28059480     0.20700
C1894       C  0.37499493  0.94787865  0.29115553     0.25800
C1895       C  0.35542162  0.95485324  0.28420998    -0.22200
C1896       C  0.34715651  0.94644057  0.26582471     0.20700
F1897       F  0.32859292  0.95283529  0.25820317    -0.12200
F1898       F  0.34902730  0.92258508  0.23797135    -0.14600
F1899       F  0.38387976  0.95586157  0.30847154    -0.14600
F1900       F  0.40342700  0.92462542  0.28852207    -0.12200
C1901       C  0.43360596  0.88221019  0.21101851     0.25800
C1902       C  0.42451962  0.87313677  0.22859046    -0.22300
C1903       C  0.43056952  0.85314934  0.23457855     0.20700
C1904       C  0.44512173  0.84215427  0.22303023     0.25800
C1905       C  0.45420463  0.85103123  0.20525398    -0.22200
C1906       C  0.44842491  0.87132194  0.19950537     0.20700
F1907       F  0.45687392  0.88062484  0.18262067    -0.12200
F1908       F  0.42732572  0.90108189  0.20424186    -0.14600
F1909       F  0.44988428  0.82259080  0.22910911    -0.14600
F1910       F  0.42201048  0.84404358  0.25152508    -0.12200
C1911       C  0.45422266  0.93170622  0.25833080     0.25800
C1912       C  0.45172884  0.94955069  0.24605585    -0.22300
C1913       C  0.43387066  0.95151401  0.23371689     0.20700
C1914       C  0.41856811  0.93608776  0.23395942     0.25800
C1915       C  0.42119562  0.91814299  0.24596283    -0.22200
C1916       C  0.43919522  0.91596761  0.25803074     0.20700
F1917       F  0.44183967  0.89887625  0.26997896    -0.12200
F1918       F  0.47137306  0.92939222  0.27033102    -0.14600
F1919       F  0.40125054  0.93844431  0.22224156    -0.14600
F1920       F  0.43096844  0.96867200  0.22191137    -0.12200
C1921       C  0.26126045  0.05147636  0.63101360     0.25800
C1922       C  0.26822361  0.06185933  0.61331376    -0.22300
C1923       C  0.28741228  0.05653578  0.60452079     0.20700
C1924       C  0.29990325  0.04142136  0.61384268     0.25800
C1925       C  0.29330364  0.03143074  0.63214443    -0.22200
C1926       C  0.27352333  0.03633556  0.64028259     0.20700
F1927       F  0.26607143  0.02690941  0.65756486    -0.12200
F1928       F  0.24269147  0.05643281  0.63967608    -0.14600
F1929       F  0.31871408  0.03719486  0.60535208    -0.14600
F1930       F  0.29463269  0.06689324  0.58768991    -0.12200
C1931       C  0.22718271  0.14225905  0.54668805     0.25800
C1932       C  0.20761790  0.13515673  0.53980951    -0.22300
C1933       C  0.19998811  0.11614721  0.54755573     0.20700
C1934       C  0.21129657  0.10500885  0.56231262     0.25800
C1935       C  0.23033458  0.11263445  0.56954003    -0.22200
C1936       C  0.23828851  0.13115485  0.56151029     0.20700
F1937       F  0.25682852  0.13860769  0.56823136    -0.12200
F1938       F  0.23557916  0.16012789  0.53938268    -0.14600
F1939       F  0.20314564  0.08733467  0.57032844    -0.14600
F1940       F  0.18137860  0.10849810  0.54129852    -0.12200
C1941       C  0.25853567  0.05836250  0.53536262     0.25800
C1942       C  0.24714295  0.03985667  0.53711119    -0.22300
C1943       C  0.23619121  0.03578037  0.55552851     0.20700
C1944       C  0.23697649  0.04982525  0.57206808     0.25800
C1945       C  0.24823895  0.06837474  0.57022159    -0.22200
C1946       C  0.25884591  0.07263179  0.55170191     0.20700
F1947       F  0.26978445  0.09049035  0.54964873    -0.12200
F1948       F  0.26900815  0.06279126  0.51765334    -0.14600
F1949       F  0.22646623  0.04555619  0.58978841    -0.14600
F1950       F  0.22519380  0.01795002  0.55767913    -0.12200
C1951       C  0.28470978  0.06457580  0.37989644     0.25800
C1952       C  0.26597600  0.07198312  0.37172904    -0.22300
C1953       C  0.25839550  0.06380073  0.35313035     0.20700
C1954       C  0.26950618  0.04858859  0.34255081     0.25800
C1955       C  0.28871800  0.04144436  0.35025541    -0.22200
C1956       C  0.29604832  0.04945661  0.36925861     0.20700
F1957       F  0.31447467  0.04320459  0.37731388    -0.12200
F1958       F  0.29262431  0.07282769  0.39754826    -0.14600
F1959       F  0.26150621  0.04121065  0.32455353    -0.14600
F1960       F  0.24027464  0.07084076  0.34501843    -0.12200
C1961       C  0.20961707  0.11184276  0.42591756     0.25800
C1962       C  0.22948086  0.11900946  0.42065269    -0.22300
C1963       C  0.23806366  0.13579846  0.43134308     0.20700
C1964       C  0.22684822  0.14561784  0.44698352     0.25800
C1965       C  0.20651687  0.13905657  0.45196470    -0.22200
C1966       C  0.19815083  0.12179858  0.44142078     0.20700
F1967       F  0.17867897  0.11488575  0.44560299    -0.12200
F1968       F  0.20092564  0.09587604  0.41531795    -0.14600
F1969       F  0.23598473  0.16164108  0.45711223    -0.14600
F1970       F  0.25734090  0.14282012  0.42645023    -0.12200
C1971       C  0.25797603  0.06174395  0.44948587     0.25800
C1972       C  0.24662688  0.04344018  0.44610432    -0.22300
C1973       C  0.23559756  0.04104119  0.42747457     0.20700
C1974       C  0.23613517  0.05661973  0.41235129     0.25800
C1975       C  0.24730799  0.07498459  0.41583984    -0.22200
C1976       C  0.25810848  0.07749155  0.43456011     0.20700
F1977       F  0.26913280  0.09505306  0.43813633    -0.12200
F1978       F  0.26862520  0.06450153  0.46741692    -0.14600
F1979       F  0.22554061  0.05396072  0.39439043    -0.14600
F1980       F  0.22480288  0.02336421  0.42370741    -0.12200
C1981       C  0.29514550  0.91449364  0.60877170     0.25800
C1982       C  0.27367585  0.91770879  0.60680009    -0.22300
C1983       C  0.26446944  0.93510686  0.61590476     0.20700
C1984       C  0.27648057  0.94883614  0.62751076     0.25800
C1985       C  0.29793635  0.94552901  0.62979585    -0.22200
C1986       C  0.30732081  0.92858196  0.61988694     0.20700
F1987       F  0.32803362  0.92517042  0.62178462    -0.12200
F1988       F  0.30416765  0.89748179  0.60030443    -0.14600
F1989       F  0.26716482  0.96541682  0.63651098    -0.14600
F1990       F  0.24366079  0.93816299  0.61446777    -0.12200
C1991       C  0.23381890  0.87154643  0.54494204     0.25800
C1992       C  0.22401864  0.87899311  0.56280666    -0.22300
C1993       C  0.20246335  0.87686378  0.56510276     0.20700
C1994       C  0.19085238  0.86668788  0.54991084     0.25800
C1995       C  0.20086123  0.85803596  0.53260981    -0.22200
C1996       C  0.22235725  0.86093804  0.53000846     0.20700
F1997       F  0.23232052  0.85317818  0.51317489    -0.12200
F1998       F  0.25469592  0.87342441  0.54261888    -0.14600
F1999       F  0.17011252  0.86414107  0.55274885    -0.14600
F2000       F  0.19283805  0.88399629  0.58239705    -0.12200
C2001       C  0.26669925  0.92535319  0.55555693     0.25800
C2002       C  0.24836595  0.91982099  0.56593474    -0.22300
C2003       C  0.22982678  0.93004981  0.56087891     0.20700
C2004       C  0.22950536  0.94533999  0.54548006     0.25800
C2005       C  0.24783384  0.95079640  0.53474966    -0.22200
C2006       C  0.26649269  0.94066028  0.54015947     0.20700
F2007       F  0.28456145  0.94519999  0.53030877    -0.12200
F2008       F  0.28472090  0.91537603  0.55984382    -0.14600
F2009       F  0.21121906  0.95491472  0.54130595    -0.14600
F2010       F  0.21202554  0.92540769  0.57113598    -0.12200
C2011       C  0.28683894  0.92285609  0.37027471     0.25800
C2012       C  0.26518918  0.92230573  0.36805328    -0.22300
C2013       C  0.25542152  0.93643512  0.35478132     0.20700
C2014       C  0.26706472  0.95140814  0.34431117     0.25800
C2015       C  0.28874451  0.95256444  0.34708085    -0.22200
C2016       C  0.29852276  0.93808840  0.36015627     0.20700
F2017       F  0.31947880  0.93809284  0.36244706    -0.12200
F2018       F  0.29677079  0.90806228  0.38142522    -0.14600
F2019       F  0.25705783  0.96483289  0.33157647    -0.14600
F2020       F  0.23460633  0.93536366  0.35158065    -0.12200
C2021       C  0.19815426  0.87837811  0.41341605     0.25800
C2022       C  0.21971047  0.88136013  0.41514431    -0.22300
C2023       C  0.23007668  0.87438997  0.43290715     0.20700
C2024       C  0.21924288  0.86347351  0.44819625     0.25800
C2025       C  0.19780765  0.85973146  0.44610317    -0.22200
C2026       C  0.18719140  0.86792710  0.42897375     0.20700
F2027       F  0.16649735  0.86464253  0.42664392    -0.12200
F2028       F  0.18788712  0.88494751  0.39627595    -0.14600
F2029       F  0.22976765  0.85619040  0.46489132    -0.14600
F2030       F  0.25093485  0.87685325  0.43474054    -0.12200
C2031       C  0.26384956  0.92602709  0.42231083     0.25800
C2032       C  0.24533242  0.92181466  0.41165282    -0.22300
C2033       C  0.22756140  0.93343793  0.41632008     0.20700
C2034       C  0.22810213  0.94877214  0.43166001     0.25800
C2035       C  0.24658819  0.95294271  0.44267818    -0.22200
C2036       C  0.26456729  0.94153408  0.43752927     0.20700
F2037       F  0.28276175  0.94491238  0.44758870    -0.12200
F2038       F  0.28104492  0.91452900  0.41861105    -0.14600
F2039       F  0.21048402  0.95962825  0.43553975    -0.14600
F2040       F  0.20963568  0.92994659  0.40584515    -0.12200
C2041       C  0.06908243  0.71009971  0.60885539     0.25800
C2042       C  0.07868212  0.72735783  0.61791257    -0.22300
C2043       C  0.07163937  0.73457818  0.63715576     0.20700
C2044       C  0.05525488  0.72462593  0.64730239     0.25800
C2045       C  0.04573918  0.70701006  0.63845558    -0.22200
C2046       C  0.05274929  0.70003951  0.61895384     0.20700
F2047       F  0.04413253  0.68322195  0.60970506    -0.12200
F2048       F  0.07620168  0.70228163  0.59068912    -0.14600
F2049       F  0.04907160  0.73208477  0.66597299    -0.14600
F2050       F  0.08071682  0.75128836  0.64618640    -0.12200
C2051       C  0.14316584  0.75521390  0.55668152     0.25800
C2052       C  0.12541151  0.76207152  0.56721006    -0.22300
C2053       C  0.11611694  0.78081008  0.56139870     0.20700
C2054       C  0.12462946  0.79278591  0.54549098     0.25800
C2055       C  0.14278301  0.78629730  0.53512259    -0.22200
C2056       C  0.15170032  0.76707913  0.54065833     0.20700
F2057       F  0.16876391  0.75972599  0.53073088    -0.12200
F2058       F  0.15231062  0.73702885  0.56201828    -0.14600
F2059       F  0.11536641  0.81105900  0.54076530    -0.14600
F2060       F  0.09943821  0.78815136  0.57193826    -0.12200
C2061       C  0.06650454  0.73272259  0.54094492     0.25800
C2062       C  0.04860843  0.74470233  0.54440382    -0.22300
C2063       C  0.04718832  0.75666001  0.56254764     0.20700
C2064       C  0.06329346  0.75638134  0.57714526     0.25800
C2065       C  0.08129493  0.74466809  0.57349376    -0.22200
C2066       C  0.08285818  0.73298613  0.55522723     0.20700
F2067       F  0.10006808  0.72143693  0.55155159    -0.12200
F2068       F  0.06833402  0.72114457  0.52348959    -0.14600
F2069       F  0.06156431  0.76783135  0.59468190    -0.14600
F2070       F  0.03000948  0.76823377  0.56631565    -0.12200
C2071       C  0.07551759  0.68715567  0.38239333     0.25800
C2072       C  0.07493024  0.70883125  0.38380639    -0.22300
C2073       C  0.05791786  0.71970740  0.37581023     0.20700
C2074       C  0.04207696  0.70912007  0.36558605     0.25800
C2075       C  0.04290829  0.68744689  0.36348294    -0.22200
C2076       C  0.05940629  0.67645005  0.37255418     0.20700
F2077       F  0.06054120  0.65551954  0.37084183    -0.12200
F2078       F  0.09196798  0.67647364  0.39003221    -0.14600
F2079       F  0.02606413  0.72009962  0.35745082    -0.14600
F2080       F  0.05729987  0.74071181  0.37677695    -0.12200
C2081       C  0.12482109  0.75255078  0.44098468     0.25800
C2082       C  0.11899846  0.75922566  0.42117861    -0.22300
C2083       C  0.12198930  0.77998216  0.41539794     0.20700
C2084       C  0.13121149  0.79388910  0.42921131     0.25800
C2085       C  0.13811831  0.78689265  0.44857784    -0.22200
C2086       C  0.13454693  0.76627597  0.45455428     0.20700
F2087       F  0.14059260  0.75946554  0.47351712    -0.12200
F2088       F  0.12194609  0.73253174  0.44678592    -0.14600
F2089       F  0.13426459  0.81386865  0.42337408    -0.14600
F2090       F  0.11624075  0.78662591  0.39629505    -0.12200
C2091       C  0.07267832  0.71906732  0.43574334     0.25800
C2092       C  0.07756410  0.73590359  0.42293313    -0.22300
C2093       C  0.06737231  0.75485689  0.42595502     0.20700
C2094       C  0.05242231  0.75696643  0.44159427     0.25800
C2095       C  0.04743365  0.74008218  0.45458192    -0.22200
C2096       C  0.05782811  0.72108536  0.45143524     0.20700
F2097       F  0.05397365  0.70448798  0.46377631    -0.12200
F2098       F  0.08278324  0.70078242  0.43336513    -0.14600
F2099       F  0.04256773  0.77542661  0.44369218    -0.14600
F2100       F  0.07161757  0.77119200  0.41341448    -0.12200
C2101       C  0.93161985  0.73735652  0.63701209     0.25800
C2102       C  0.92557619  0.73160450  0.61696025    -0.22300
C2103       C  0.93515799  0.71457685  0.60742295     0.20700
C2104       C  0.95049666  0.70338917  0.61785464     0.25800
C2105       C  0.95614842  0.70871954  0.63828131    -0.22200
C2106       C  0.94669187  0.72606369  0.64760566     0.20700
F2107       F  0.95154045  0.73189493  0.66721785    -0.12200
F2108       F  0.92254490  0.75376283  0.64656271    -0.14600
F2109       F  0.95946170  0.68710163  0.60801193    -0.14600
F2110       F  0.92879461  0.70785812  0.58857770    -0.12200
C2111       C  0.88850184  0.78756292  0.56117377     0.25800
C2112       C  0.87920433  0.76904433  0.56779969    -0.22300
C2113       C  0.86077481  0.76234898  0.55842820     0.20700
C2114       C  0.85151036  0.77411568  0.54286992     0.25800
C2115       C  0.86047385  0.79303010  0.53638171    -0.22200
C2116       C  0.87933828  0.79939369  0.54548895     0.20700
F2117       F  0.88867744  0.81735485  0.53973289    -0.12200
F2118       F  0.90574755  0.79489630  0.57075225    -0.14600
F2119       F  0.83355521  0.76698618  0.53445426    -0.14600
F2120       F  0.85154238  0.74443999  0.56457482    -0.12200
C2121       C  0.92193485  0.73772899  0.55584487     0.25800
C2122       C  0.92320217  0.75089410  0.57306134    -0.22300
C2123       C  0.94059820  0.76381143  0.57537407     0.20700
C2124       C  0.95658317  0.76353729  0.56059537     0.25800
C2125       C  0.95577136  0.74961542  0.54383769    -0.22200
C2126       C  0.93827150  0.73673621  0.54159863     0.20700
F2127       F  0.93685321  0.72339933  0.52540280    -0.12200
F2128       F  0.90516072  0.72523039  0.55336962    -0.14600
F2129       F  0.97310869  0.77638800  0.56298209    -0.14600
F2130       F  0.94189703  0.77682170  0.59182595    -0.12200
C2131       C  0.94709060  0.72414239  0.37948810     0.25800
C2132       C  0.92735576  0.71648684  0.38454360    -0.22300
C2133       C  0.92261149  0.69555856  0.38079990     0.20700
C2134       C  0.93719195  0.68260422  0.37131275     0.25800
C2135       C  0.95643364  0.69064149  0.36505577    -0.22200
C2136       C  0.96147776  0.71134326  0.36963257     0.20700
F2137       F  0.98010908  0.71935904  0.36385972    -0.12200
F2138       F  0.95183338  0.74440762  0.38256136    -0.14600
F2139       F  0.93195473  0.66273190  0.36682084    -0.14600
F2140       F  0.90352265  0.68796128  0.38552858    -0.12200
C2141       C  0.87744134  0.76071549  0.43975026     0.25800
C2142       C  0.88507560  0.76926033  0.42128654    -0.22300
C2143       C  0.88187092  0.79033293  0.41700365     0.20700
C2144       C  0.87104731  0.80276768  0.43106450     0.25800
C2145       C  0.86276155  0.79404466  0.44920050    -0.22200
C2146       C  0.86615657  0.77298753  0.45353919     0.20700
F2147       F  0.85856160  0.76433870  0.47116365    -0.12200
F2148       F  0.87998118  0.74024888  0.44387948    -0.14600
F2149       F  0.86782013  0.82305356  0.42654745    -0.14600
F2150       F  0.88885873  0.79869950  0.39900554    -0.12200
C2151       C  0.92944450  0.72697293  0.43588091     0.25800
C2152       C  0.92596399  0.74440316  0.42343219    -0.22300
C2153       C  0.93770322  0.76240652  0.42685081     0.20700
C2154       C  0.95298373  0.76289011  0.44231727     0.25800
C2155       C  0.95668980  0.74532828  0.45482612    -0.22200
C2156       C  0.94453417  0.72740900  0.45147437     0.20700
F2157       F  0.94700418  0.71029317  0.46343756    -0.12200
F2158       F  0.91790416  0.70959508  0.43311524    -0.14600
F2159       F  0.96444105  0.78040054  0.44464880    -0.14600
F2160       F  0.93480105  0.77929978  0.41468223    -0.12200
C2161       C  0.69725640  0.04556515  0.61434743     0.25800
C2162       C  0.70272990  0.03802353  0.63413435    -0.22300
C2163       C  0.72031597  0.04654377  0.64405163     0.20700
C2164       C  0.73183761  0.06224003  0.63462457     0.25800
C2165       C  0.72619047  0.06987645  0.61511643    -0.22200
C2166       C  0.70888990  0.06137809  0.60496177     0.20700
F2167       F  0.70256716  0.06911842  0.58647446    -0.12200
F2168       F  0.68043336  0.03799406  0.60418963    -0.14600
F2169       F  0.74849677  0.07023722  0.64474881    -0.14600
F2170       F  0.72621638  0.04015109  0.66319658    -0.12200
C2171       C  0.76056234  0.13667016  0.56073371     0.25800
C2172       C  0.76661726  0.11787295  0.56972455    -0.22300
C2173       C  0.78537037  0.10866095  0.56358193     0.20700
C2174       C  0.79808727  0.11832067  0.54885979     0.25800
C2175       C  0.79233852  0.13753622  0.54016427    -0.22200
C2176       C  0.77317765  0.14638925  0.54608393     0.20700
F2177       F  0.76663270  0.16467901  0.53801802    -0.12200
F2178       F  0.74241516  0.14578866  0.56634983    -0.14600
F2179       F  0.81623955  0.10904112  0.54357528    -0.14600
F2180       F  0.79199831  0.09091771  0.57268261    -0.12200
C2181       C  0.76149960  0.04113501  0.56008995     0.25800
C2182       C  0.74998344  0.04314019  0.54170799    -0.22300
C2183       C  0.73775795  0.06090874  0.53864174     0.20700
C2184       C  0.73696079  0.07637796  0.55377207     0.25800
C2185       C  0.74783712  0.07400917  0.57242550    -0.22200
C2186       C  0.76011243  0.05632785  0.57552199     0.20700
F2187       F  0.77100259  0.05406050  0.59336056    -0.12200
F2188       F  0.77358149  0.02422082  0.56332415    -0.14600
F2189       F  0.72520338  0.09350051  0.55049699    -0.14600
F2190       F  0.72688054  0.06341838  0.52080928    -0.12200
C2191       C  0.73338157  0.05554599  0.37526201     0.25800
C2192       C  0.72439257  0.07434771  0.38134267    -0.22300
C2193       C  0.70301476  0.07753461  0.37840467     0.20700
C2194       C  0.69083681  0.06222609  0.36895305     0.25800
C2195       C  0.70011202  0.04389541  0.36177879    -0.22200
C2196       C  0.72137088  0.04050315  0.36536637     0.20700
F2197       F  0.73057491  0.02271662  0.35892608    -0.12200
F2198       F  0.75404526  0.05226902  0.37781301    -0.14600
F2199       F  0.67032951  0.06581336  0.36568781    -0.14600
F2200       F  0.69409681  0.09565998  0.38426191    -0.12200
C2201       C  0.76630577  0.12017630  0.44176531     0.25800
C2202       C  0.77485097  0.11609068  0.42218735    -0.22300
C2203       C  0.79561310  0.12156062  0.41814991     0.20700
C2204       C  0.80754071  0.13136781  0.43340936     0.25800
C2205       C  0.79864340  0.13620014  0.45265836    -0.22200
C2206       C  0.77807770  0.13032604  0.45682844     0.20700
F2207       F  0.76935281  0.13462980  0.47548585    -0.12200
F2208       F  0.74619785  0.11541200  0.44591372    -0.14600
F2209       F  0.82739639  0.13701281  0.42908963    -0.14600
F2210       F  0.80418639  0.11766140  0.39933422    -0.12200
C2211       C  0.76803663  0.04940780  0.44191948     0.25800
C2212       C  0.74953440  0.04388487  0.45229813    -0.22300
C2213       C  0.73105922  0.05446527  0.44717816     0.20700
C2214       C  0.73112035  0.06996948  0.43203575     0.25800
C2215       C  0.74955385  0.07529117  0.42173657    -0.22200
C2216       C  0.76799038  0.06494121  0.42681221     0.20700
F2217       F  0.78588495  0.06953632  0.41669063    -0.12200
F2218       F  0.78619529  0.03958971  0.44607496    -0.14600
F2219       F  0.71323891  0.08020497  0.42774404    -0.14600
F2220       F  0.71292361  0.05010328  0.45699571    -0.12200
C2221       C  0.73452157  0.93821153  0.61736581     0.25800
C2222       C  0.72601446  0.91897417  0.61185544    -0.22300
C2223       C  0.70484480  0.91509444  0.61546417     0.20700
C2224       C  0.69237473  0.93020289  0.62480595     0.25800
C2225       C  0.70114622  0.94907478  0.63117627    -0.22200
C2226       C  0.72221663  0.95307499  0.62717307     0.20700
F2227       F  0.73089492  0.97136356  0.63295324    -0.12200
F2228       F  0.75498132  0.94219986  0.61420126    -0.14600
F2229       F  0.67205543  0.92602074  0.62858246    -0.14600
F2230       F  0.69637041  0.89657672  0.61015699    -0.12200
C2231       C  0.79689407  0.87617733  0.57080758     0.25800
C2232       C  0.77543416  0.87904766  0.56828509    -0.22300
C2233       C  0.76596773  0.87350391  0.54953884     0.20700
C2234       C  0.77764752  0.86429724  0.53381723     0.25800
C2235       C  0.79902191  0.86086082  0.53649445    -0.22200
C2236       C  0.80872423  0.86744661  0.55484289     0.20700
F2237       F  0.82936810  0.86434664  0.55776004    -0.12200
F2238       F  0.80624781  0.88141848  0.58890208    -0.14600
F2239       F  0.76804407  0.85848076  0.51603016    -0.14600
F2240       F  0.74520415  0.87597179  0.54690356    -0.12200
C2241       C  0.73244428  0.92467798  0.56083857     0.25800
C2242       C  0.75087952  0.91970697  0.57122136    -0.22300
C2243       C  0.76902991  0.93086199  0.56679692     0.20700
C2244       C  0.76879205  0.94683574  0.55214709     0.25800
C2245       C  0.75031598  0.95184719  0.54149121    -0.22200
C2246       C  0.73210437  0.94057912  0.54612847     0.20700
F2247       F  0.71398547  0.94462427  0.53619683    -0.12200
F2248       F  0.71485556  0.91372122  0.56463544    -0.14600
F2249       F  0.78659935  0.95758738  0.54872368    -0.14600
F2250       F  0.78688006  0.92656873  0.57709476    -0.12200
C2251       C  0.70322644  0.92273446  0.37596325     0.25800
C2252       C  0.72483463  0.92487806  0.37786757    -0.22300
C2253       C  0.73460195  0.94286793  0.37060365     0.20700
C2254       C  0.72297852  0.95834088  0.36094453     0.25800
C2255       C  0.70134302  0.95619899  0.35883084    -0.22200
C2256       C  0.69146626  0.93848443  0.36681521     0.20700
F2257       F  0.67064266  0.93592047  0.36471680    -0.12200
F2258       F  0.69362899  0.90520684  0.38259126    -0.14600
F2259       F  0.73288453  0.97535878  0.35348201    -0.14600
F2260       F  0.75553828  0.94495905  0.37197021    -0.12200
C2261       C  0.76500714  0.87509586  0.43735857     0.25800
C2262       C  0.77389221  0.88172074  0.41868084    -0.22300
C2263       C  0.79522722  0.87871068  0.41519421     0.20700
C2264       C  0.80754568  0.86907984  0.43024285     0.25800
C2265       C  0.79847976  0.86176494  0.44862569    -0.22200
C2266       C  0.77715720  0.86495938  0.45212241     0.20700
F2267       F  0.76804263  0.85799304  0.46976891    -0.12200
F2268       F  0.74433635  0.87742521  0.44079033    -0.14600
F2269       F  0.82801228  0.86584544  0.42637722    -0.14600
F2270       F  0.80400749  0.88482867  0.39707329    -0.12200
C2271       C  0.73005058  0.92885808  0.42854315     0.25800
C2272       C  0.74867356  0.92256319  0.41913618    -0.22300
C2273       C  0.76736840  0.93178345  0.42543690     0.20700
C2274       C  0.76756158  0.94681086  0.44104895     0.25800
C2275       C  0.74892941  0.95319198  0.45064357    -0.22200
C2276       C  0.73010858  0.94408952  0.44400307     0.20700
F2277       F  0.71167664  0.94974563  0.45250298    -0.12200
F2278       F  0.71179612  0.91989554  0.42307668    -0.14600
F2279       F  0.78607381  0.95526531  0.44649762    -0.14600
F2280       F  0.78547447  0.92661512  0.41603020    -0.12200
loop_ 
_geom_bond_atom_site_label_1 
_geom_bond_atom_site_label_2 
_geom_bond_distance 
_geom_bond_site_symmetry_2 
_ccdc_geom_bond_type 
N1            C5   1.355       .  A
N1            C2   1.356       .  A
N1         C2272   1.444       .  S
C2            C3   1.381       .  A
C2         C2262   1.474       .  S
C3            C4   1.376       .  A
C3            H6   1.084       .  S
C4            C5   1.381       .  A
C4            H7   1.084       .  S
C5         C2252   1.470       .  S
N8           C12   1.352       .  A
N8            C9   1.353       .  A
N8         C2242   1.438       .  S
C9           C10   1.382       .  A
C9         C2222   1.474       .  S
C10          C11   1.379       .  A
C10          H13   1.084       .  S
C11          C12   1.382       .  A
C11          H14   1.083       .  S
C12        C2232   1.473       .  S
N15          C19   1.354       .  A
N15          C16   1.355       .  A
N15        C2215   1.440       .  S
C16          C17   1.382       .  A
C16        C2202   1.476       .  S
C17          C18   1.377       .  A
C17          H20   1.085       .  S
C18          C19   1.381       .  A
C18          H21   1.083       .  S
C19        C2192   1.473       .  S
N22          C26   1.354       .  A
N22          C23   1.355       .  A
N22        C2185   1.437       .  S
C23          C24   1.383       .  A
C23        C2165   1.478       .  S
C24          C25   1.375       .  A
C24          H27   1.085       .  S
C25          C26   1.382       .  A
C25          H28   1.085       .  S
C26        C2172   1.476       .  S
O29         Cu37   2.018       .  S
O29          C39   1.280       .  A
O30         Cu37   2.017   1_545  S
O30          C40   1.278       .  A
O31         Cu37   2.006       .  S
O31          C41   1.277       .  A
O32         Cu37   2.010   1_545  S
O32          C42   1.278       .  A
O33         Cu38   2.009   1_545  S
O33          C42   1.278       .  A
O34         Cu38   2.016       .  S
O34          C41   1.279       .  A
O35         Cu38   2.007   1_545  S
O35          C40   1.277       .  A
O36         Cu38   2.012       .  S
O36          C39   1.278       .  A
Cu37        Cu38   2.367       .  S
C39        C2275   1.493       .  S
C40        C2182   1.474       .  S
C41        C2245   1.488       .  S
C42        C2212   1.489       .  S
N43          C47   1.354       .  A
N43          C44   1.354       .  A
N43        C2152   1.442       .  S
C44          C45   1.382       .  A
C44        C2132   1.471       .  S
C45          C46   1.376       .  A
C45          H48   1.079       .  S
C46          C47   1.381       .  A
C46          H49   1.080       .  S
C47        C2142   1.468       .  S
N50          C54   1.354       .  A
N50          C51   1.355       .  A
N50        C2122   1.439       .  S
C51          C52   1.382       .  A
C51        C2102   1.475       .  S
C52          C53   1.373       .  A
C52          H55   1.085       .  S
C53          C54   1.382       .  A
C53          H56   1.085       .  S
C54        C2112   1.474       .  S
N57          C61   1.351       .  A
N57          C58   1.352       .  A
N57        C2092   1.440       .  S
C58          C59   1.382       .  A
C58        C2072   1.467       .  S
C59          C60   1.377       .  A
C59          H62   1.083       .  S
C60          C61   1.381       .  A
C60          H63   1.083       .  S
C61        C2082   1.466       .  S
N64          C68   1.354       .  A
N64          C65   1.354       .  A
N64        C2065   1.441       .  S
C65          C66   1.383       .  A
C65        C2042   1.475       .  S
C66          C67   1.377       .  A
C66          H69   1.085       .  S
C67          C68   1.382       .  A
C67          H70   1.086       .  S
C68        C2052   1.475       .  S
O71         Cu79   2.024   1_655  S
O71          C81   1.280       .  A
O72         Cu79   2.020       .  S
O72          C82   1.278       .  A
O73         Cu79   2.024       .  S
O73          C83   1.280       .  A
O74         Cu79   2.021   1_655  S
O74          C84   1.279       .  A
O75         Cu80   2.012   1_655  S
O75          C84   1.278       .  A
O76         Cu80   2.006       .  S
O76          C83   1.277       .  A
O77         Cu80   2.018       .  S
O77          C82   1.278       .  A
O78         Cu80   2.010   1_655  S
O78          C81   1.278       .  A
Cu79        Cu80   2.369       .  S
C81        C2155   1.493       .  S
C82        C2062   1.478       .  S
C83        C2095   1.490       .  S
C84        C2125   1.480       .  S
N85          C89   1.357       .  A
N85          C86   1.356       .  A
N85        C2032   1.443       .  S
C86          C87   1.381       .  A
C86        C2022   1.475       .  S
C87          C88   1.374       .  A
C87          H90   1.083       .  S
C88          C89   1.381       .  A
C88          H91   1.083       .  S
C89        C2012   1.471       .  S
N92          C96   1.354       .  A
N92          C93   1.353       .  A
N92        C2002   1.444       .  S
C93          C94   1.380       .  A
C93        C1992   1.465       .  S
C94          C95   1.374       .  A
C94          H97   1.084       .  S
C95          C96   1.381       .  A
C95          H98   1.083       .  S
C96        C1982   1.466       .  S
N99         C103   1.354       .  A
N99         C100   1.353       .  A
N99        C1975   1.441       .  S
C100        C101   1.381       .  A
C100       C1962   1.469       .  S
C101        C102   1.374       .  A
C101        H104   1.085       .  S
C102        C103   1.382       .  A
C102        H105   1.086       .  S
C103       C1952   1.471       .  S
N106        C110   1.353       .  A
N106        C107   1.353       .  A
N106       C1945   1.440       .  S
C107        C108   1.381       .  A
C107       C1935   1.469       .  S
C108        C109   1.373       .  A
C108        H111   1.085       .  S
C109        C110   1.382       .  A
C109        H112   1.086       .  S
C110       C1922   1.470       .  S
O113       Cu121   2.017       .  S
O113        C123   1.279       .  A
O114       Cu121   2.022   1_545  S
O114        C124   1.279       .  A
O115       Cu121   2.015       .  S
O115        C125   1.279       .  A
O116       Cu121   2.019   1_545  S
O116        C126   1.278       .  A
O117       Cu122   2.017   1_545  S
O117        C126   1.278       .  A
O118       Cu122   2.028       .  S
O118        C125   1.280       .  A
O119       Cu122   2.012   1_545  S
O119        C124   1.277       .  A
O120       Cu122   2.018       .  S
O120        C123   1.279       .  A
Cu121      Cu122   2.369       .  S
C123       C2005   1.494       .  S
C124       C1972   1.477       .  S
C125       C2035   1.495       .  S
C126       C1942   1.478       .  S
N127        C131   1.355       .  A
N127        C128   1.356       .  A
N127       C1915   1.441       .  S
C128        C129   1.383       .  A
C128       C1902   1.474       .  S
C129        C130   1.370       .  A
C129        H132   1.084       .  S
C130        C131   1.381       .  A
C130        H133   1.084       .  S
C131       C1892   1.472       .  S
N134        C138   1.354       .  A
N134        C135   1.354       .  A
N134       C1885   1.439       .  S
C135        C136   1.382       .  A
C135       C1872   1.473       .  S
C136        C137   1.373       .  A
C136        H139   1.084       .  S
C137        C138   1.382       .  A
C137        H140   1.084       .  S
C138       C1862   1.472       .  S
N141        C145   1.351       .  A
N141        C142   1.352       .  A
N141       C1855   1.437       .  S
C142        C143   1.382       .  A
C142       C1842   1.469       .  S
C143        C144   1.375       .  A
C143        H146   1.083       .  S
C144        C145   1.381       .  A
C144        H147   1.084       .  S
C145       C1832   1.468       .  S
N148        C152   1.353       .  A
N148        C149   1.353       .  A
N148       C1825   1.440       .  S
C149        C150   1.381       .  A
C149       C1815   1.466       .  S
C150        C151   1.372       .  A
C150        H153   1.084       .  S
C151        C152   1.381       .  A
C151        H154   1.084       .  S
C152       C1805   1.467       .  S
O155       Cu163   2.019   1_545  S
O155        C165   1.280       .  A
O156       Cu163   2.019       .  S
O156        C166   1.279       .  A
O157       Cu163   2.013   1_545  S
O157        C167   1.278       .  A
O158       Cu163   2.014       .  S
O158        C168   1.278       .  A
O159       Cu164   2.021       .  S
O159        C168   1.279       .  A
O160       Cu164   2.018   1_545  S
O160        C167   1.279       .  A
O161       Cu164   2.011       .  S
O161        C166   1.278       .  A
O162       Cu164   2.012   1_545  S
O162        C165   1.277       .  A
Cu163      Cu164   2.373       .  S
C165       C1852   1.481       .  S
C166       C1882   1.477       .  S
C167       C1822   1.482       .  S
C168       C1912   1.478       .  S
N169        C173   1.356       .  A
N169        C170   1.355       .  A
N169       C1792   1.442       .  S
C170        C171   1.382       .  A
C170       C1772   1.473       .  S
C171        C172   1.375       .  A
C171        H174   1.083       .  S
C172        C173   1.382       .  A
C172        H175   1.083       .  S
C173       C1782   1.474       .  S
N176        C180   1.355       .  A
N176        C177   1.352       .  A
N176       C1762   1.438       .  S
C177        C178   1.380       .  A
C177       C1742   1.469       .  S
C178        C179   1.375       .  A
C178        H181   1.085       .  S
C179        C180   1.383       .  A
C179        H182   1.085       .  S
C180       C1752   1.474       .  S
N183        C187   1.352       .  A
N183        C184   1.356       .  A
N183       C1735   1.441       .  S
C184        C185   1.384       .  A
C184       C1715   1.476       .  S
C185        C186   1.374       .  A
C185        H188   1.084       .  S
C186        C187   1.380       .  A
C186        H189   1.084       .  S
C187       C1722   1.468       .  S
N190        C194   1.353       .  A
N190        C191   1.354       .  A
N190       C1702   1.443       .  S
C191        C192   1.381       .  A
C191       C1682   1.467       .  S
C192        C193   1.371       .  A
C192        H195   1.085       .  S
C193        C194   1.381       .  A
C193        H196   1.085       .  S
C194       C1692   1.466       .  S
O197       Cu205   2.036       .  S
O197        C207   1.281       .  A
O198       Cu205   2.035   1_556  S
O198        C208   1.281       .  A
O199       Cu205   2.019   1_556  S
O199        C209   1.279       .  A
O200       Cu205   2.015       .  S
O200        C210   1.278       .  A
O201       Cu206   2.018       .  S
O201        C210   1.279       .  A
O202       Cu206   2.012   1_556  S
O202        C209   1.278       .  A
O203       Cu206   2.006   1_556  S
O203        C208   1.278       .  A
O204       Cu206   2.014       .  S
O204        C207   1.277       .  A
Cu205      Cu206   2.370       .  S
C207       C1705   1.485       .  S
C208       C1795   1.496       .  S
C209       C1765   1.479       .  S
C210       C1732   1.478       .  S
N211        C215   1.353       .  A
N211        C212   1.355       .  A
N211       C1675   1.440       .  S
C212        C213   1.384       .  A
C212       C1662   1.477       .  S
C213        C214   1.378       .  A
C213        H216   1.083       .  S
C214        C215   1.381       .  A
C214        H217   1.083       .  S
C215       C1652   1.473       .  S
N218        C222   1.353       .  A
N218        C219   1.352       .  A
N218       C1642   1.441       .  S
C219        C220   1.381       .  A
C219       C1632   1.468       .  S
C220        C221   1.377       .  A
C220        H223   1.083       .  S
C221        C222   1.382       .  A
C221        H224   1.083       .  S
C222       C1622   1.470       .  S
N225        C229   1.357       .  A
N225        C226   1.355       .  A
N225       C1615   1.441       .  S
C226        C227   1.381       .  A
C226       C1602   1.474       .  S
C227        C228   1.372       .  A
C227        H230   1.085       .  S
C228        C229   1.383       .  A
C228        H231   1.085       .  S
C229       C1592   1.477       .  S
N232        C236   1.352       .  A
N232        C233   1.352       .  A
N232       C1582   1.437       .  S
C233        C234   1.382       .  A
C233       C1572   1.472       .  S
C234        C235   1.374       .  A
C234        H237   1.085       .  S
C235        C236   1.381       .  A
C235        H238   1.084       .  S
C236       C1562   1.470       .  S
O239       Cu247   2.024   1_545  S
O239        C249   1.279       .  A
O240       Cu247   2.020       .  S
O240        C250   1.279       .  A
O241       Cu247   2.012   1_545  S
O241        C251   1.278       .  A
O242       Cu247   2.008       .  S
O242        C252   1.278       .  A
O243       Cu248   2.013       .  S
O243        C252   1.279       .  A
O244       Cu248   2.007   1_545  S
O244        C251   1.277       .  A
O245       Cu248   2.013       .  S
O245        C250   1.279       .  A
O246       Cu248   2.007   1_545  S
O246        C249   1.277       .  A
Cu247      Cu248   2.370       .  S
C249       C1612   1.475       .  S
C250       C1645   1.493       .  S
C251       C1585   1.474       .  S
C252       C1672   1.489       .  S
N253        C257   1.353       .  A
N253        C254   1.352       .  A
N253       C1552   1.439       .  S
C254        C255   1.381       .  A
C254       C1535   1.468       .  S
C255        C256   1.373       .  A
C255        H258   1.085       .  S
C256        C257   1.382       .  A
C256        H259   1.085       .  S
C257       C1542   1.470       .  S
N260        C264   1.357       .  A
N260        C261   1.355       .  A
N260       C1522   1.441       .  S
C261        C262   1.381       .  A
C261       C1512   1.472       .  S
C262        C263   1.373       .  A
C262        H265   1.084       .  S
C263        C264   1.382       .  A
C263        H266   1.084       .  S
C264       C1505   1.475       .  S
N267        C271   1.353       .  A
N267        C268   1.353       .  A
N267       C1495   1.442       .  S
C268        C269   1.381       .  A
C268       C1482   1.467       .  S
C269        C270   1.374       .  A
C269        H272   1.083       .  S
C270        C271   1.381       .  A
C270        H273   1.083       .  S
C271       C1472   1.467       .  S
N274        C278   1.352       .  A
N274        C275   1.352       .  A
N274       C1462   1.441       .  S
C275        C276   1.382       .  A
C275       C1455   1.468       .  S
C276        C277   1.376       .  A
C276        H279   1.082       .  S
C277        C278   1.381       .  A
C277        H280   1.083       .  S
C278       C1442   1.468       .  S
O281       Cu289   2.011       .  S
O281        C291   1.277       .  A
O282       Cu289   2.014   1_554  S
O282        C292   1.279       .  A
O283       Cu289   2.020       .  S
O283        C293   1.279       .  A
O284       Cu289   2.027   1_554  S
O284        C294   1.280       .  A
O285       Cu290   2.014   1_554  S
O285        C294   1.279       .  A
O286       Cu290   2.022       .  S
O286        C293   1.279       .  A
O287       Cu290   2.018   1_554  S
O287        C292   1.279       .  A
O288       Cu290   2.024       .  S
O288        C291   1.280       .  A
Cu289      Cu290   2.368       .  S
C291       C1555   1.480       .  S
C292       C1465   1.493       .  S
C293       C1525   1.481       .  S
C294       C1492   1.496       .  S
N295        C299   1.357       .  A
N295        C296   1.354       .  A
N295       C1435   1.440       .  S
C296        C297   1.381       .  A
C296       C1422   1.471       .  S
C297        C298   1.372       .  A
C297        H300   1.084       .  S
C298        C299   1.383       .  A
C298        H301   1.084       .  S
C299       C1412   1.478       .  S
N302        C306   1.352       .  A
N302        C303   1.353       .  A
N302       C1402   1.442       .  S
C303        C304   1.382       .  A
C303       C1392   1.467       .  S
C304        C305   1.375       .  A
C304        H307   1.082       .  S
C305        C306   1.381       .  A
C305        H308   1.083       .  S
C306       C1382   1.465       .  S
N309        C313   1.356       .  A
N309        C310   1.352       .  A
N309       C1372   1.443       .  S
C310        C311   1.380       .  A
C310       C1362   1.465       .  S
C311        C312   1.371       .  A
C311        H314   1.085       .  S
C312        C313   1.384       .  A
C312        H315   1.085       .  S
C313       C1352   1.472       .  S
N316        C320   1.355       .  A
N316        C317   1.358       .  A
N316       C1342   1.440       .  S
C317        C318   1.384       .  A
C317       C1335   1.479       .  S
C318        C319   1.371       .  A
C318        H321   1.084       .  S
C319        C320   1.380       .  A
C319        H322   1.084       .  S
C320       C1325   1.472       .  S
O323       Cu331   2.024   1_554  S
O323        C333   1.279       .  A
O324       Cu331   2.015       .  S
O324        C334   1.278       .  A
O325       Cu331   2.025   1_554  S
O325        C335   1.279       .  A
O326       Cu331   2.020       .  S
O326        C336   1.280       .  A
O327       Cu332   2.018       .  S
O327        C336   1.279       .  A
O328       Cu332   2.019   1_554  S
O328        C335   1.279       .  A
O329       Cu332   2.017       .  S
O329        C334   1.278       .  A
O330       Cu332   2.011   1_554  S
O330        C333   1.277       .  A
Cu331      Cu332   2.371       .  S
C333       C1345   1.478       .  S
C334       C1432   1.478       .  S
C335       C1375   1.482       .  S
C336       C1405   1.494       .  S
N337        C341   1.357       .  A
N337        C338   1.356       .  A
N337       C1312   1.444       .  S
C338        C339   1.381       .  A
C338       C1302   1.473       .  S
C339        C340   1.374       .  A
C339        H342   1.083       .  S
C340        C341   1.382       .  A
C340        H343   1.083       .  S
C341       C1292   1.475       .  S
N344        C348   1.356       .  A
N344        C345   1.356       .  A
N344       C1282   1.447       .  S
C345        C346   1.381       .  A
C345       C1272   1.470       .  S
C346        C347   1.374       .  A
C346        H349   1.083       .  S
C347        C348   1.382       .  A
C347        H350   1.083       .  S
C348       C1262   1.470       .  S
N351        C355   1.354       .  A
N351        C352   1.354       .  A
N351       C1252   1.444       .  S
C352        C353   1.381       .  A
C352       C1242   1.469       .  S
C353        C354   1.372       .  A
C353        H356   1.084       .  S
C354        C355   1.383       .  A
C354        H357   1.085       .  S
C355       C1232   1.470       .  S
N358        C362   1.351       .  A
N358        C359   1.353       .  A
N358       C1222   1.440       .  S
C359        C360   1.382       .  A
C359       C1212   1.469       .  S
C360        C361   1.374       .  A
C360        H363   1.084       .  S
C361        C362   1.381       .  A
C361        H364   1.084       .  S
C362       C1202   1.465       .  S
O365       Cu373   2.018       .  S
O365        C375   1.278       .  A
O366       Cu373   2.026   1_655  S
O366        C376   1.280       .  A
O367       Cu373   2.018       .  S
O367        C377   1.278       .  A
O368       Cu373   2.023   1_655  S
O368        C378   1.280       .  A
O369       Cu374   2.015   1_655  S
O369        C378   1.279       .  A
O370       Cu374   2.021       .  S
O370        C377   1.279       .  A
O371       Cu374   2.015   1_655  S
O371        C376   1.279       .  A
O372       Cu374   2.022       .  S
O372        C375   1.278       .  A
Cu373      Cu374   2.367       .  S
C375       C1255   1.478       .  S
C376       C1285   1.497       .  S
C377       C1225   1.483       .  S
C378       C1315   1.496       .  S
N379        C383   1.353       .  A
N379        C380   1.351       .  A
N379       C1192   1.441       .  S
C380        C381   1.381       .  A
C380       C1182   1.464       .  S
C381        C382   1.371       .  A
C381        H384   1.084       .  S
C382        C383   1.383       .  A
C382        H385   1.084       .  S
C383       C1172   1.469       .  S
N386        C390   1.354       .  A
N386        C387   1.355       .  A
N386       C1162   1.444       .  S
C387        C388   1.382       .  A
C387       C1142   1.471       .  S
C388        C389   1.373       .  A
C388        H391   1.083       .  S
C389        C390   1.380       .  A
C389        H392   1.083       .  S
C390       C1152   1.466       .  S
N393        C397   1.352       .  A
N393        C394   1.353       .  A
N393       C1132   1.439       .  S
C394        C395   1.381       .  A
C394       C1125   1.468       .  S
C395        C396   1.374       .  A
C395        H398   1.085       .  S
C396        C397   1.382       .  A
C396        H399   1.085       .  S
C397       C1115   1.468       .  S
N400        C404   1.354       .  A
N400        C401   1.354       .  A
N400       C1105   1.440       .  S
C401        C402   1.381       .  A
C401       C1082   1.472       .  S
C402        C403   1.375       .  A
C402        H405   1.084       .  S
C403        C404   1.382       .  A
C403        H406   1.084       .  S
C404       C1095   1.472       .  S
O407       Cu415   2.013       .  S
O407        C417   1.278       .  A
O408       Cu415   2.007   1_556  S
O408        C418   1.277       .  A
O409       Cu415   2.021   1_556  S
O409        C419   1.279       .  A
O410       Cu415   2.018       .  S
O410        C420   1.279       .  A
O411       Cu416   2.023   1_554  S
O411        C420   1.279       .  A
O412       Cu416   2.023       .  S
O412        C419   1.280       .  A
O413       Cu416   2.027       .  S
O413        C418   1.280       .  A
O414       Cu416   2.023   1_554  S
O414        C417   1.279       .  A
Cu415      Cu416   2.370   1_554  S
C417       C1102   1.480       .  S
C418       C1195   1.478       .  S
C419       C1165   1.497       .  S
C420       C1135   1.482       .  S
N421        C425   1.356       .  A
N421        C422   1.357       .  A
N421       C1072   1.440       .  S
C422        C423   1.383       .  A
C422       C1062   1.478       .  S
C423        C424   1.374       .  A
C423        H426   1.083       .  S
C424        C425   1.382       .  A
C424        H427   1.084       .  S
C425       C1052   1.479       .  S
N428        C432   1.355       .  A
N428        C429   1.357       .  A
N428       C1042   1.443       .  S
C429        C430   1.383       .  A
C429       C1032   1.476       .  S
C430        C431   1.371       .  A
C430        H433   1.085       .  S
C431        C432   1.380       .  A
C431        H434   1.085       .  S
C432       C1022   1.470       .  S
N435        C439   1.351       .  A
N435        C436   1.352       .  A
N435       C1015   1.445       .  S
C436        C437   1.382       .  A
C436       C1002   1.462       .  S
C437        C438   1.375       .  A
C437        H440   1.084       .  S
C438        C439   1.380       .  A
C438        H441   1.083       .  S
C439        C992   1.462       .  S
N442        C446   1.352       .  A
N442        C443   1.354       .  A
N442        C982   1.440       .  S
C443        C444   1.383       .  A
C443        C962   1.472       .  S
C444        C445   1.372       .  A
C444        H447   1.085       .  S
C445        C446   1.381       .  A
C445        H448   1.085       .  S
C446        C972   1.467       .  S
O449       Cu457   2.015       .  S
O449        C459   1.278       .  A
O450       Cu457   2.022   1_455  S
O450        C460   1.279       .  A
O451       Cu457   2.014       .  S
O451        C461   1.277       .  A
O452       Cu457   2.015   1_455  S
O452        C462   1.279       .  A
O453       Cu458   2.028   1_455  S
O453        C462   1.280       .  A
O454       Cu458   2.023       .  S
O454        C461   1.280       .  A
O455       Cu458   2.015   1_455  S
O455        C460   1.278       .  A
O456       Cu458   2.019       .  S
O456        C459   1.278       .  A
Cu457      Cu458   2.371       .  S
C459       C1075   1.476       .  S
C460        C985   1.481       .  S
C461       C1045   1.478       .  S
C462       C1012   1.496       .  S
N463        C467   1.351       .  A
N463        C464   1.352       .  A
N463        C952   1.442       .  S
C464        C465   1.382       .  A
C464        C932   1.467       .  S
C465        C466   1.376       .  A
C465        H468   1.083       .  S
C466        C467   1.382       .  A
C466        H469   1.083       .  S
C467        C942   1.466       .  S
N470        C474   1.355       .  A
N470        C471   1.354       .  A
N470        C922   1.440       .  S
C471        C472   1.381       .  A
C471        C902   1.472       .  S
C472        C473   1.374       .  A
C472        H475   1.084       .  S
C473        C474   1.382       .  A
C473        H476   1.084       .  S
C474        C912   1.473       .  S
N477        C481   1.350       .  A
N477        C478   1.353       .  A
N477        C892   1.439       .  S
C478        C479   1.382       .  A
C478        C872   1.471       .  S
C479        C480   1.377       .  A
C479        H482   1.084       .  S
C480        C481   1.381       .  A
C480        H483   1.084       .  S
C481        C882   1.467       .  S
N484        C488   1.356       .  A
N484        C485   1.356       .  A
N484        C865   1.443       .  S
C485        C486   1.381       .  A
C485        C842   1.472       .  S
C486        C487   1.372       .  A
C486        H489   1.085       .  S
C487        C488   1.382       .  A
C487        H490   1.085       .  S
C488        C852   1.473       .  S
O491       Cu499   2.017   1_655  S
O491        C501   1.279       .  A
O492       Cu499   2.023       .  S
O492        C502   1.280       .  A
O493       Cu499   2.008       .  S
O493        C503   1.277       .  A
O494       Cu499   2.013   1_655  S
O494        C504   1.278       .  A
O495       Cu500   2.019   1_655  S
O495        C504   1.280       .  A
O496       Cu500   2.027       .  S
O496        C503   1.280       .  A
O497       Cu500   2.006       .  S
O497        C502   1.278       .  A
O498       Cu500   2.017   1_655  S
O498        C501   1.278       .  A
Cu499      Cu500   2.369       .  S
C501        C925   1.478       .  S
C502        C895   1.490       .  S
C503        C862   1.476       .  S
C504        C955   1.493       .  S
O505       Cu513   2.020   1_655  S
O505        C515   1.280       .  A
O506       Cu513   2.017       .  S
O506        C516   1.279       .  A
O507       Cu513   2.001       .  S
O507        C517   1.276       .  A
O508       Cu513   2.014   1_655  S
O508        C518   1.278       .  A
O509       Cu514   1.986   1_655  S
O509        C518   1.275       .  A
O510       Cu514   1.985       .  S
O510        C517   1.275       .  A
O511       Cu514   1.993       .  S
O511        C516   1.276       .  A
O512       Cu514   1.995   1_655  S
O512        C515   1.277       .  A
Cu513      Cu514   2.375       .  S
C515       C1055   1.489       .  S
C516        C875   1.470       .  S
C517        C995   1.461       .  S
C518        C935   1.467       .  S
O519       Cu527   1.989       .  S
O519        C529   1.275       .  A
O520       Cu527   1.989       .  S
O520        C530   1.275       .  A
O521       Cu527   2.006       .  S
O521        C531   1.277       .  A
O522       Cu527   1.999       .  S
O522        C532   1.277       .  A
O523       Cu528   2.014       .  S
O523        C532   1.279       .  A
O524       Cu528   2.009       .  S
O524        C531   1.276       .  A
O525       Cu528   2.007       .  S
O525        C530   1.277       .  A
O526       Cu528   2.021       .  S
O526        C529   1.280       .  A
Cu527      Cu528   2.372       .  S
C529       C2175   1.488       .  S
C530        C945   1.464       .  S
C531       C2205   1.468       .  S
C532        C915   1.488       .  S
O533       Cu541   1.989       .  S
O533        C543   1.276       .  A
O534       Cu541   1.995       .  S
O534        C544   1.277       .  A
O535       Cu541   1.994       .  S
O535        C545   1.276       .  A
O536       Cu541   1.994       .  S
O536        C546   1.276       .  A
O537       Cu542   2.011       .  S
O537        C546   1.278       .  A
O538       Cu542   2.010       .  S
O538        C545   1.278       .  A
O539       Cu542   2.015       .  S
O539        C544   1.279       .  A
O540       Cu542   2.020       .  S
O540        C543   1.280       .  A
Cu541      Cu542   2.368       .  S
C543        C855   1.487       .  S
C544       C1965   1.486       .  S
C545        C885   1.470       .  S
C546       C1932   1.485       .  S
O547       Cu555   1.999       .  S
O547        C557   1.277       .  A
O548       Cu555   1.999       .  S
O548        C558   1.277       .  A
O549       Cu555   1.990       .  S
O549        C559   1.276       .  A
O550       Cu555   1.992       .  S
O550        C560   1.276       .  A
O551       Cu556   2.020       .  S
O551        C560   1.280       .  A
O552       Cu556   2.021       .  S
O552        C559   1.280       .  A
O553       Cu556   2.006       .  S
O553        C558   1.277       .  A
O554       Cu556   2.006       .  S
O554        C557   1.277       .  A
Cu555      Cu556   2.365       .  S
C557       C1122   1.485       .  S
C558       C1035   1.485       .  S
C559       C1092   1.488       .  S
C560       C1065   1.487       .  S
O561       Cu569   1.988       .  S
O561        C571   1.276       .  A
O562       Cu569   1.985       .  S
O562        C572   1.275       .  A
O563       Cu569   1.982       .  S
O563        C573   1.275       .  A
O564       Cu569   1.983       .  S
O564        C574   1.275       .  A
O565       Cu570   2.018       .  S
O565        C574   1.279       .  A
O566       Cu570   2.008       .  S
O566        C573   1.278       .  A
O567       Cu570   2.006       .  S
O567        C572   1.277       .  A
O568       Cu570   2.007       .  S
O568        C571   1.278       .  A
Cu569      Cu570   2.370       .  S
C571       C1332   1.481       .  S
C572       C1005   1.463       .  S
C573       C1365   1.479       .  S
C574        C975   1.485       .  S
O575       Cu583   1.995       .  S
O575        C585   1.276       .  A
O576       Cu583   1.992   1_554  S
O576        C586   1.277       .  A
O577       Cu583   1.989   1_554  S
O577        C587   1.275       .  A
O578       Cu583   1.986       .  S
O578        C588   1.275       .  A
O579       Cu584   2.003       .  S
O579        C588   1.278       .  A
O580       Cu584   2.006   1_554  S
O580        C587   1.277       .  A
O581       Cu584   2.012   1_554  S
O581        C586   1.278       .  A
O582       Cu584   2.023       .  S
O582        C585   1.280       .  A
Cu583      Cu584   2.369       .  S
C585       C1502   1.490       .  S
C586       C1112   1.482       .  S
C587       C1445   1.465       .  S
C588       C1175   1.480       .  S
O589       Cu597   2.004       .  S
O589        C599   1.278       .  A
O590       Cu597   2.009       .  S
O590        C600   1.278       .  A
O591       Cu597   2.006       .  S
O591        C601   1.277       .  A
O592       Cu597   2.016       .  S
O592        C602   1.278       .  A
O593       Cu598   1.996       .  S
O593        C602   1.276       .  A
O594       Cu598   1.998       .  S
O594        C601   1.277       .  A
O595       Cu598   1.989       .  S
O595        C600   1.276       .  A
O596       Cu598   1.985       .  S
O596        C599   1.276       .  A
Cu597      Cu598   2.374       .  S
C599       C1185   1.480       .  S
C600       C1275   1.467       .  S
C601       C1155   1.470       .  S
C602       C1305   1.471       .  S
O603       Cu611   1.992       .  S
O603        C613   1.276       .  A
O604       Cu611   1.994   1_655  S
O604        C614   1.276       .  A
O605       Cu611   1.997   1_655  S
O605        C615   1.277       .  A
O606       Cu611   1.986       .  S
O606        C616   1.276       .  A
O607       Cu612   2.009       .  S
O607        C616   1.278       .  A
O608       Cu612   2.005   1_655  S
O608        C615   1.278       .  A
O609       Cu612   2.019   1_655  S
O609        C614   1.278       .  A
O610       Cu612   2.015       .  S
O610        C613   1.279       .  A
Cu611      Cu612   2.369       .  S
C613        C845   1.485       .  S
C614       C1295   1.469       .  S
C615        C905   1.484       .  S
C616       C1235   1.480       .  S
O617       Cu625   1.989       .  S
O617        C627   1.276       .  A
O618       Cu625   1.994       .  S
O618        C628   1.276       .  A
O619       Cu625   1.997       .  S
O619        C629   1.277       .  A
O620       Cu625   1.997       .  S
O620        C630   1.277       .  A
O621       Cu626   1.999       .  S
O621        C630   1.277       .  A
O622       Cu626   2.000       .  S
O622        C629   1.276       .  A
O623       Cu626   2.009       .  S
O623        C628   1.278       .  A
O624       Cu626   2.016       .  S
O624        C627   1.279       .  A
Cu625      Cu626   2.369       .  S
C627       C1425   1.486       .  S
C628       C1215   1.483       .  S
C629       C1395   1.466       .  S
C630       C1245   1.482       .  S
O631       Cu639   1.997   1_554  S
O631        C641   1.277       .  A
O632       Cu639   2.010       .  S
O632        C642   1.278       .  A
O633       Cu639   2.011       .  S
O633        C643   1.278       .  A
O634       Cu639   2.007   1_554  S
O634        C644   1.277       .  A
O635       Cu640   1.992   1_554  S
O635        C644   1.275       .  A
O636       Cu640   1.993       .  S
O636        C643   1.276       .  A
O637       Cu640   1.992       .  S
O637        C642   1.277       .  A
O638       Cu640   1.996   1_554  S
O638        C641   1.277       .  A
Cu639      Cu640   2.369       .  S
C641       C1355   1.481       .  S
C642       C1532   1.484       .  S
C643       C1415   1.485       .  S
C644       C1475   1.463       .  S
O645       Cu653   2.009       .  S
O645        C655   1.278       .  A
O646       Cu653   2.008       .  S
O646        C656   1.278       .  A
O647       Cu653   2.021       .  S
O647        C657   1.279       .  A
O648       Cu653   2.017       .  S
O648        C658   1.279       .  A
O649       Cu654   1.990       .  S
O649        C658   1.276       .  A
O650       Cu654   1.994       .  S
O650        C657   1.276       .  A
O651       Cu654   1.993       .  S
O651        C656   1.276       .  A
O652       Cu654   1.993       .  S
O652        C655   1.276       .  A
Cu653      Cu654   2.365       .  S
C655       C1545   1.484       .  S
C656       C1575   1.485       .  S
C657       C1515   1.487       .  S
C658       C1605   1.486       .  S
O659       Cu667   2.000       .  S
O659        C669   1.277       .  A
O660       Cu667   2.000       .  S
O660        C670   1.277       .  A
O661       Cu667   1.999       .  S
O661        C671   1.277       .  A
O662       Cu667   1.997       .  S
O662        C672   1.277       .  A
O663       Cu668   2.013       .  S
O663        C672   1.278       .  A
O664       Cu668   2.005       .  S
O664        C671   1.278       .  A
O665       Cu668   2.004       .  S
O665        C670   1.277       .  A
O666       Cu668   1.996       .  S
O666        C669   1.277       .  A
Cu667      Cu668   2.372       .  S
C669       C1812   1.480       .  S
C670       C1485   1.471       .  S
C671       C1845   1.481       .  S
C672       C1452   1.472       .  S
O673       Cu681   1.994   1_545  S
O673        C683   1.277       .  A
O674       Cu681   1.998       .  S
O674        C684   1.277       .  A
O675       Cu681   1.983       .  S
O675        C685   1.274       .  A
O676       Cu681   1.977   1_545  S
O676        C686   1.274       .  A
O677       Cu682   2.028   1_545  S
O677        C686   1.281       .  A
O678       Cu682   2.024       .  S
O678        C685   1.279       .  A
O679       Cu682   2.004       .  S
O679        C684   1.276       .  A
O680       Cu682   2.009   1_545  S
O680        C683   1.278       .  A
Cu681      Cu682   2.372       .  S
C683       C1595   1.482       .  S
C684       C1985   1.468       .  S
C685       C1655   1.466       .  S
C686       C1925   1.486       .  S
O687       Cu695   2.016       .  S
O687        C697   1.278       .  A
O688       Cu695   2.016       .  S
O688        C698   1.279       .  A
O689       Cu695   2.012       .  S
O689        C699   1.278       .  A
O690       Cu695   2.007       .  S
O690        C700   1.277       .  A
O691       Cu696   2.002       .  S
O691        C700   1.277       .  A
O692       Cu696   1.996       .  S
O692        C699   1.277       .  A
O693       Cu696   1.995       .  S
O693        C698   1.276       .  A
O694       Cu696   1.995       .  S
O694        C697   1.276       .  A
Cu695      Cu696   2.374       .  S
C697       C1665   1.466       .  S
C698       C1755   1.487       .  S
C699       C1635   1.471       .  S
C700       C1785   1.468       .  S
O701       Cu709   2.003       .  S
O701        C711   1.276       .  A
O702       Cu709   2.008   1_554  S
O702        C712   1.278       .  A
O703       Cu709   2.022   1_554  S
O703        C713   1.279       .  A
O704       Cu709   2.016       .  S
O704        C714   1.278       .  A
O705       Cu710   1.999       .  S
O705        C714   1.276       .  A
O706       Cu710   1.991   1_554  S
O706        C713   1.276       .  A
O707       Cu710   1.997   1_554  S
O707        C712   1.276       .  A
O708       Cu710   1.999       .  S
O708        C711   1.277       .  A
Cu709      Cu710   2.372       .  S
C711       C1385   1.468       .  S
C712       C1712   1.484       .  S
C713       C1322   1.488       .  S
C714       C1775   1.468       .  S
O715       Cu723   1.992       .  S
O715        C725   1.276       .  A
O716       Cu723   1.992       .  S
O716        C726   1.277       .  A
O717       Cu723   1.987       .  S
O717        C727   1.275       .  A
O718       Cu723   1.986       .  S
O718        C728   1.275       .  A
O719       Cu724   2.018       .  S
O719        C728   1.279       .  A
O720       Cu724   2.018       .  S
O720        C727   1.280       .  A
O721       Cu724   2.006       .  S
O721        C726   1.277       .  A
O722       Cu724   2.003       .  S
O722        C725   1.277       .  A
Cu723      Cu724   2.366       .  S
C725       C1695   1.482       .  S
C726       C1905   1.482       .  S
C727       C1725   1.483       .  S
C728       C1875   1.485       .  S
O729       Cu737   1.998   1_545  S
O729        C739   1.277       .  A
O730       Cu737   1.996       .  S
O730        C740   1.277       .  A
O731       Cu737   1.998       .  S
O731        C741   1.277       .  A
O732       Cu737   1.995   1_545  S
O732        C742   1.276       .  A
O733       Cu738   2.012   1_545  S
O733        C742   1.278       .  A
O734       Cu738   2.013       .  S
O734        C741   1.279       .  A
O735       Cu738   2.000       .  S
O735        C740   1.277       .  A
O736       Cu738   2.008   1_545  S
O736        C739   1.278       .  A
Cu737      Cu738   2.367       .  S
C739       C1955   1.486       .  S
C740       C1895   1.482       .  S
C741       C2015   1.480       .  S
C742       C1835   1.485       .  S
O743       Cu751   2.018       .  S
O743        C753   1.279       .  A
O744       Cu751   2.015       .  S
O744        C754   1.280       .  A
O745       Cu751   2.007       .  S
O745        C755   1.277       .  A
O746       Cu751   2.003       .  S
O746        C756   1.276       .  A
O747       Cu752   1.996       .  S
O747        C756   1.276       .  A
O748       Cu752   1.991       .  S
O748        C755   1.276       .  A
O749       Cu752   2.001       .  S
O749        C754   1.277       .  A
O750       Cu752   2.001       .  S
O750        C753   1.277       .  A
Cu751      Cu752   2.374       .  S
C753       C2025   1.475       .  S
C754       C2055   1.488       .  S
C755       C1995   1.469       .  S
C756       C2085   1.462       .  S
O757       Cu765   1.993   1_455  S
O757        C767   1.277       .  A
O758       Cu765   2.000       .  S
O758        C768   1.278       .  A
O759       Cu765   1.981       .  S
O759        C769   1.274       .  A
O760       Cu765   1.980   1_455  S
O760        C770   1.275       .  A
O761       Cu766   2.018   1_455  S
O761        C770   1.279       .  A
O762       Cu766   2.024       .  S
O762        C769   1.279       .  A
O763       Cu766   2.003       .  S
O763        C768   1.277       .  A
O764       Cu766   2.010   1_455  S
O764        C767   1.277       .  A
Cu765      Cu766   2.371       .  S
C767       C2075   1.472       .  S
C768       C1025   1.485       .  S
C769       C2135   1.468       .  S
C770        C965   1.484       .  S
O771       Cu779   2.013       .  S
O771        C781   1.277       .  A
O772       Cu779   2.003       .  S
O772        C782   1.276       .  A
O773       Cu779   2.025       .  S
O773        C783   1.280       .  A
O774       Cu779   2.023       .  S
O774        C784   1.280       .  A
O775       Cu780   1.986       .  S
O775        C784   1.275       .  A
O776       Cu780   1.990       .  S
O776        C783   1.275       .  A
O777       Cu780   2.003       .  S
O777        C782   1.277       .  A
O778       Cu780   1.998       .  S
O778        C781   1.277       .  A
Cu779      Cu780   2.374       .  S
C781       C2235   1.471       .  S
C782       C2145   1.468       .  S
C783       C2265   1.472       .  S
C784       C2115   1.487       .  S
O785       Cu793   1.997       .  S
O785        C795   1.277       .  A
O786       Cu793   1.993   1_565  S
O786        C796   1.276       .  A
O787       Cu793   1.994   1_565  S
O787        C797   1.277       .  A
O788       Cu793   1.993       .  S
O788        C798   1.276       .  A
O789       Cu794   2.023   1_545  S
O789        C798   1.279       .  A
O790       Cu794   2.012       .  S
O790        C797   1.279       .  A
O791       Cu794   2.014       .  S
O791        C796   1.278       .  A
O792       Cu794   2.004   1_545  S
O792        C795   1.278       .  A
Cu793      Cu794   2.371   1_545  S
C795       C1802   1.483       .  S
C796       C2255   1.472       .  S
C797       C1865   1.486       .  S
C798       C2195   1.472       .  S
O799       Cu807   2.007   1_455  S
O799        C809   1.278       .  A
O800       Cu807   2.013       .  S
O800        C810   1.277       .  A
O801       Cu807   2.002       .  S
O801        C811   1.277       .  A
O802       Cu807   2.007   1_455  S
O802        C812   1.278       .  A
O803       Cu808   1.990       .  S
O803        C812   1.276       .  A
O804       Cu808   1.997   1_655  S
O804        C811   1.277       .  A
O805       Cu808   2.002   1_655  S
O805        C810   1.277       .  A
O806       Cu808   2.000       .  S
O806        C809   1.277       .  A
Cu807      Cu808   2.369   1_655  S
C809       C2045   1.486       .  S
C810       C1265   1.470       .  S
C811       C2105   1.483       .  S
C812       C1205   1.481       .  S
O813       Cu821   1.993       .  S
O813        C823   1.276       .  A
O814       Cu821   1.991   1_545  S
O814        C824   1.276       .  A
O815       Cu821   1.989   1_545  S
O815        C825   1.276       .  A
O816       Cu821   1.998       .  S
O816        C826   1.276       .  A
O817       Cu822   2.015       .  S
O817        C826   1.278       .  A
O818       Cu822   2.016   1_545  S
O818        C825   1.279       .  A
O819       Cu822   2.026   1_545  S
O819        C824   1.280       .  A
O820       Cu822   2.015       .  S
O820        C823   1.278       .  A
Cu821      Cu822   2.371       .  S
C823       C1625   1.467       .  S
C824       C2162   1.490       .  S
C825       C1565   1.485       .  S
C826       C2225   1.469       .  S
O827       Cu835   2.010       .  S
O827        C837   1.278       .  A
O828       Cu835   2.017   1_554  S
O828        C838   1.279       .  A
O829       Cu835   1.999   1_554  S
O829        C839   1.277       .  A
O830       Cu835   2.002       .  S
O830        C840   1.276       .  A
O831       Cu836   2.000       .  S
O831        C840   1.277       .  A
O832       Cu836   1.997   1_554  S
O832        C839   1.277       .  A
O833       Cu836   1.995   1_554  S
O833        C838   1.276       .  A
O834       Cu836   2.002       .  S
O834        C837   1.277       .  A
Cu835      Cu836   2.370       .  S
C837       C1745   1.482       .  S
C838       C1085   1.487       .  S
C839       C1685   1.482       .  S
C840       C1145   1.464       .  S
C841        C842   1.402       .  A
C841        C846   1.400       .  A
C841        F848   1.358       .  S
C842        C843   1.400       .  A
C843        C844   1.394       .  A
C843        F850   1.358       .  S
C844        C845   1.412       .  A
C844        F849   1.358       .  S
C845        C846   1.412       .  A
C846        F847   1.358       .  S
C851        C852   1.402       .  A
C851        C856   1.402       .  A
C851        F858   1.357       .  S
C852        C853   1.401       .  A
C853        C854   1.394       .  A
C853        F860   1.358       .  S
C854        C855   1.412       .  A
C854        F859   1.358       .  S
C855        C856   1.413       .  A
C856        F857   1.357       .  S
C861        C862   1.405       .  A
C861        C866   1.403       .  A
C861        F868   1.358       .  S
C862        C863   1.404       .  A
C863        C864   1.400       .  A
C863        F870   1.358       .  S
C864        C865   1.405       .  A
C864        F869   1.357       .  S
C865        C866   1.406       .  A
C866        F867   1.357       .  S
C871        C872   1.405       .  A
C871        C876   1.400       .  A
C871        F878   1.358       .  S
C872        C873   1.402       .  A
C873        C874   1.395       .  A
C873        F880   1.358       .  S
C874        C875   1.405       .  A
C874        F879   1.358       .  S
C875        C876   1.405       .  A
C876        F877   1.358       .  S
C881        C882   1.403       .  A
C881        C886   1.398       .  A
C881        F888   1.358       .  S
C882        C883   1.401       .  A
C883        C884   1.396       .  A
C883        F890   1.358       .  S
C884        C885   1.407       .  A
C884        F889   1.358       .  S
C885        C886   1.404       .  A
C886        F887   1.358       .  S
C891        C892   1.401       .  A
C891        C896   1.399       .  A
C891        F898   1.357       .  S
C892        C893   1.402       .  A
C893        C894   1.401       .  A
C893        F900   1.356       .  S
C894        C895   1.412       .  A
C894        F899   1.357       .  S
C895        C896   1.413       .  A
C896        F897   1.358       .  S
C901        C902   1.401       .  A
C901        C906   1.395       .  A
C901        F908   1.358       .  S
C902        C903   1.402       .  A
C903        C904   1.398       .  A
C903        F910   1.357       .  S
C904        C905   1.411       .  A
C904        F909   1.358       .  S
C905        C906   1.412       .  A
C906        F907   1.358       .  S
C911        C912   1.402       .  A
C911        C916   1.400       .  A
C911        F918   1.357       .  S
C912        C913   1.401       .  A
C913        C914   1.395       .  A
C913        F920   1.358       .  S
C914        C915   1.412       .  A
C914        F919   1.358       .  S
C915        C916   1.413       .  A
C916        F917   1.358       .  S
C921        C922   1.404       .  A
C921        C926   1.403       .  A
C921        F928   1.357       .  S
C922        C923   1.403       .  A
C923        C924   1.399       .  A
C923        F930   1.357       .  S
C924        C925   1.405       .  A
C924        F929   1.357       .  S
C925        C926   1.408       .  A
C926        F927   1.358       .  S
C931        C932   1.401       .  A
C931        C936   1.395       .  A
C931        F938   1.358       .  S
C932        C933   1.403       .  A
C933        C934   1.397       .  A
C933        F940   1.358       .  S
C934        C935   1.404       .  A
C934        F939   1.358       .  S
C935        C936   1.406       .  A
C936        F937   1.358       .  S
C941        C942   1.402       .  A
C941        C946   1.395       .  A
C941        F948   1.358       .  S
C942        C943   1.403       .  A
C943        C944   1.396       .  A
C943        F950   1.358       .  S
C944        C945   1.403       .  A
C944        F949   1.358       .  S
C945        C946   1.405       .  A
C946        F947   1.358       .  S
C951        C952   1.403       .  A
C951        C956   1.400       .  A
C951        F958   1.357       .  S
C952        C953   1.403       .  A
C953        C954   1.400       .  A
C953        F960   1.357       .  S
C954        C955   1.412       .  A
C954        F959   1.357       .  S
C955        C956   1.414       .  A
C956        F957   1.358       .  S
C961        C962   1.400       .  A
C961        C966   1.392       .  A
C961        F968   1.358       .  S
C962        C963   1.404       .  A
C963        C964   1.399       .  A
C963        F970   1.356       .  S
C964        C965   1.411       .  A
C964        F969   1.358       .  S
C965        C966   1.413       .  A
C966        F967   1.358       .  S
C971        C972   1.399       .  A
C971        C976   1.392       .  A
C971        F978   1.359       .  S
C972        C973   1.401       .  A
C973        C974   1.400       .  A
C973        F980   1.357       .  S
C974        C975   1.412       .  A
C974        F979   1.357       .  S
C975        C976   1.413       .  A
C976        F977   1.358       .  S
C981        C982   1.403       .  A
C981        C986   1.401       .  A
C981        F988   1.357       .  S
C982        C983   1.403       .  A
C983        C984   1.402       .  A
C983        F990   1.357       .  S
C984        C985   1.408       .  A
C984        F989   1.358       .  S
C985        C986   1.407       .  A
C986        F987   1.358       .  S
C991        C992   1.403       .  A
C991        C996   1.396       .  A
C991        F998   1.358       .  S
C992        C993   1.399       .  A
C993        C994   1.393       .  A
C993       F1000   1.358       .  S
C994        C995   1.405       .  A
C994        F999   1.358       .  S
C995        C996   1.403       .  A
C996        F997   1.358       .  S
C1001      C1002   1.403       .  A
C1001      C1006   1.397       .  A
C1001      F1008   1.358       .  S
C1002      C1003   1.400       .  A
C1003      C1004   1.392       .  A
C1003      F1010   1.358       .  S
C1004      C1005   1.405       .  A
C1004      F1009   1.358       .  S
C1005      C1006   1.404       .  A
C1006      F1007   1.358       .  S
C1011      C1012   1.413       .  A
C1011      C1016   1.404       .  A
C1011      F1018   1.357       .  S
C1012      C1013   1.413       .  A
C1013      C1014   1.400       .  A
C1013      F1020   1.357       .  S
C1014      C1015   1.402       .  A
C1014      F1019   1.356       .  S
C1015      C1016   1.404       .  A
C1016      F1017   1.357       .  S
C1021      C1022   1.401       .  A
C1021      C1026   1.399       .  A
C1021      F1028   1.358       .  S
C1022      C1023   1.400       .  A
C1023      C1024   1.394       .  A
C1023      F1030   1.358       .  S
C1024      C1025   1.411       .  A
C1024      F1029   1.358       .  S
C1025      C1026   1.413       .  A
C1026      F1027   1.358       .  S
C1031      C1032   1.403       .  A
C1031      C1036   1.394       .  A
C1031      F1038   1.358       .  S
C1032      C1033   1.403       .  A
C1033      C1034   1.399       .  A
C1033      F1040   1.357       .  S
C1034      C1035   1.412       .  A
C1034      F1039   1.358       .  S
C1035      C1036   1.410       .  A
C1036      F1037   1.358       .  S
C1041      C1042   1.405       .  A
C1041      C1046   1.400       .  A
C1041      F1048   1.357       .  S
C1042      C1043   1.405       .  A
C1043      C1044   1.403       .  A
C1043      F1050   1.357       .  S
C1044      C1045   1.407       .  A
C1044      F1049   1.358       .  S
C1045      C1046   1.404       .  A
C1046      F1047   1.358       .  S
C1051      C1052   1.402       .  A
C1051      C1056   1.395       .  A
C1051      F1058   1.358       .  S
C1052      C1053   1.405       .  A
C1053      C1054   1.402       .  A
C1053      F1060   1.357       .  S
C1054      C1055   1.412       .  A
C1054      F1059   1.358       .  S
C1055      C1056   1.412       .  A
C1056      F1057   1.358       .  S
C1061      C1062   1.403       .  A
C1061      C1066   1.400       .  A
C1061      F1068   1.356       .  S
C1062      C1063   1.403       .  A
C1063      C1064   1.396       .  A
C1063      F1070   1.359       .  S
C1064      C1065   1.412       .  A
C1064      F1069   1.358       .  S
C1065      C1066   1.411       .  A
C1066      F1067   1.357       .  S
C1071      C1072   1.405       .  A
C1071      C1076   1.402       .  A
C1071      F1078   1.357       .  S
C1072      C1073   1.404       .  A
C1073      C1074   1.399       .  A
C1073      F1080   1.357       .  S
C1074      C1075   1.404       .  A
C1074      F1079   1.357       .  S
C1075      C1076   1.407       .  A
C1076      F1077   1.358       .  S
C1081      C1082   1.401       .  A
C1081      C1086   1.400       .  A
C1081      F1088   1.358       .  S
C1082      C1083   1.400       .  A
C1083      C1084   1.396       .  A
C1083      F1090   1.358       .  S
C1084      C1085   1.413       .  A
C1084      F1089   1.358       .  S
C1085      C1086   1.412       .  A
C1086      F1087   1.357       .  S
C1091      C1092   1.414       .  A
C1091      C1096   1.395       .  A
C1091      F1098   1.358       .  S
C1092      C1093   1.412       .  A
C1093      C1094   1.400       .  A
C1093      F1100   1.357       .  S
C1094      C1095   1.402       .  A
C1094      F1099   1.357       .  S
C1095      C1096   1.399       .  A
C1096      F1097   1.358       .  S
C1101      C1102   1.408       .  A
C1101      C1106   1.404       .  A
C1101      F1108   1.358       .  S
C1102      C1103   1.406       .  A
C1103      C1104   1.399       .  A
C1103      F1110   1.358       .  S
C1104      C1105   1.402       .  A
C1104      F1109   1.357       .  S
C1105      C1106   1.405       .  A
C1106      F1107   1.357       .  S
C1111      C1112   1.411       .  A
C1111      C1116   1.400       .  A
C1111      F1118   1.358       .  S
C1112      C1113   1.411       .  A
C1113      C1114   1.393       .  A
C1113      F1120   1.358       .  S
C1114      C1115   1.399       .  A
C1114      F1119   1.358       .  S
C1115      C1116   1.402       .  A
C1116      F1117   1.357       .  S
C1121      C1122   1.412       .  A
C1121      C1126   1.394       .  A
C1121      F1128   1.358       .  S
C1122      C1123   1.413       .  A
C1123      C1124   1.399       .  A
C1123      F1130   1.358       .  S
C1124      C1125   1.401       .  A
C1124      F1129   1.358       .  S
C1125      C1126   1.399       .  A
C1126      F1127   1.358       .  S
C1131      C1132   1.402       .  A
C1131      C1136   1.401       .  A
C1131      F1138   1.357       .  S
C1132      C1133   1.403       .  A
C1133      C1134   1.403       .  A
C1133      F1140   1.357       .  S
C1134      C1135   1.408       .  A
C1134      F1139   1.358       .  S
C1135      C1136   1.408       .  A
C1136      F1137   1.358       .  S
C1141      C1142   1.406       .  A
C1141      C1146   1.397       .  A
C1141      F1148   1.358       .  S
C1142      C1143   1.403       .  A
C1143      C1144   1.396       .  A
C1143      F1150   1.357       .  S
C1144      C1145   1.404       .  A
C1144      F1149   1.358       .  S
C1145      C1146   1.402       .  A
C1146      F1147   1.358       .  S
C1151      C1152   1.402       .  A
C1151      C1156   1.398       .  A
C1151      F1158   1.358       .  S
C1152      C1153   1.401       .  A
C1153      C1154   1.396       .  A
C1153      F1160   1.358       .  S
C1154      C1155   1.407       .  A
C1154      F1159   1.358       .  S
C1155      C1156   1.405       .  A
C1156      F1157   1.358       .  S
C1161      C1162   1.403       .  A
C1161      C1166   1.403       .  A
C1161      F1168   1.357       .  S
C1162      C1163   1.402       .  A
C1163      C1164   1.402       .  A
C1163      F1170   1.357       .  S
C1164      C1165   1.413       .  A
C1164      F1169   1.357       .  S
C1165      C1166   1.414       .  A
C1166      F1167   1.358       .  S
C1171      C1172   1.403       .  A
C1171      C1176   1.396       .  A
C1171      F1178   1.356       .  S
C1172      C1173   1.401       .  A
C1173      C1174   1.392       .  A
C1173      F1180   1.359       .  S
C1174      C1175   1.411       .  A
C1174      F1179   1.358       .  S
C1175      C1176   1.411       .  A
C1176      F1177   1.358       .  S
C1181      C1182   1.398       .  A
C1181      C1186   1.391       .  A
C1181      F1188   1.358       .  S
C1182      C1183   1.401       .  A
C1183      C1184   1.397       .  A
C1183      F1190   1.358       .  S
C1184      C1185   1.412       .  A
C1184      F1189   1.358       .  S
C1185      C1186   1.411       .  A
C1186      F1187   1.358       .  S
C1191      C1192   1.403       .  A
C1191      C1196   1.400       .  A
C1191      F1198   1.357       .  S
C1192      C1193   1.405       .  A
C1193      C1194   1.402       .  A
C1193      F1200   1.357       .  S
C1194      C1195   1.406       .  A
C1194      F1199   1.358       .  S
C1195      C1196   1.407       .  A
C1196      F1197   1.358       .  S
C1201      C1202   1.400       .  A
C1201      C1206   1.397       .  A
C1201      F1208   1.358       .  S
C1202      C1203   1.399       .  A
C1203      C1204   1.394       .  A
C1203      F1210   1.358       .  S
C1204      C1205   1.412       .  A
C1204      F1209   1.358       .  S
C1205      C1206   1.411       .  A
C1206      F1207   1.358       .  S
C1211      C1212   1.400       .  A
C1211      C1216   1.395       .  A
C1211      F1218   1.358       .  S
C1212      C1213   1.402       .  A
C1213      C1214   1.397       .  A
C1213      F1220   1.356       .  S
C1214      C1215   1.411       .  A
C1214      F1219   1.358       .  S
C1215      C1216   1.412       .  A
C1216      F1217   1.358       .  S
C1221      C1222   1.403       .  A
C1221      C1226   1.404       .  A
C1221      F1228   1.357       .  S
C1222      C1223   1.402       .  A
C1223      C1224   1.401       .  A
C1223      F1230   1.357       .  S
C1224      C1225   1.408       .  A
C1224      F1229   1.358       .  S
C1225      C1226   1.409       .  A
C1226      F1227   1.358       .  S
C1231      C1232   1.401       .  A
C1231      C1236   1.391       .  A
C1231      F1238   1.359       .  S
C1232      C1233   1.402       .  A
C1233      C1234   1.399       .  A
C1233      F1240   1.357       .  S
C1234      C1235   1.411       .  A
C1234      F1239   1.358       .  S
C1235      C1236   1.410       .  A
C1236      F1237   1.358       .  S
C1241      C1242   1.400       .  A
C1241      C1246   1.395       .  A
C1241      F1248   1.358       .  S
C1242      C1243   1.401       .  A
C1243      C1244   1.395       .  A
C1243      F1250   1.357       .  S
C1244      C1245   1.411       .  A
C1244      F1249   1.358       .  S
C1245      C1246   1.412       .  A
C1246      F1247   1.358       .  S
C1251      C1252   1.406       .  A
C1251      C1256   1.404       .  A
C1251      F1258   1.357       .  S
C1252      C1253   1.405       .  A
C1253      C1254   1.400       .  A
C1253      F1260   1.357       .  S
C1254      C1255   1.405       .  A
C1254      F1259   1.358       .  S
C1255      C1256   1.407       .  A
C1256      F1257   1.358       .  S
C1261      C1262   1.406       .  A
C1261      C1266   1.400       .  A
C1261      F1268   1.358       .  S
C1262      C1263   1.401       .  A
C1263      C1264   1.396       .  A
C1263      F1270   1.358       .  S
C1264      C1265   1.406       .  A
C1264      F1269   1.358       .  S
C1265      C1266   1.404       .  A
C1266      F1267   1.358       .  S
C1271      C1272   1.401       .  A
C1271      C1276   1.395       .  A
C1271      F1278   1.358       .  S
C1272      C1273   1.405       .  A
C1273      C1274   1.399       .  A
C1273      F1280   1.358       .  S
C1274      C1275   1.404       .  A
C1274      F1279   1.358       .  S
C1275      C1276   1.405       .  A
C1276      F1277   1.358       .  S
C1281      C1282   1.405       .  A
C1281      C1286   1.404       .  A
C1281      F1288   1.357       .  S
C1282      C1283   1.404       .  A
C1283      C1284   1.400       .  A
C1283      F1290   1.357       .  S
C1284      C1285   1.413       .  A
C1284      F1289   1.358       .  S
C1285      C1286   1.414       .  A
C1286      F1287   1.357       .  S
C1291      C1292   1.407       .  A
C1291      C1296   1.400       .  A
C1291      F1298   1.358       .  S
C1292      C1293   1.403       .  A
C1293      C1294   1.397       .  A
C1293      F1300   1.358       .  S
C1294      C1295   1.406       .  A
C1294      F1299   1.358       .  S
C1295      C1296   1.403       .  A
C1296      F1297   1.358       .  S
C1301      C1302   1.402       .  A
C1301      C1306   1.397       .  A
C1301      F1308   1.358       .  S
C1302      C1303   1.405       .  A
C1303      C1304   1.399       .  A
C1303      F1310   1.358       .  S
C1304      C1305   1.404       .  A
C1304      F1309   1.358       .  S
C1305      C1306   1.406       .  A
C1306      F1307   1.358       .  S
C1311      C1312   1.403       .  A
C1311      C1316   1.402       .  A
C1311      F1318   1.357       .  S
C1312      C1313   1.403       .  A
C1313      C1314   1.401       .  A
C1313      F1320   1.357       .  S
C1314      C1315   1.413       .  A
C1314      F1319   1.357       .  S
C1315      C1316   1.414       .  A
C1316      F1317   1.358       .  S
C1321      C1322   1.413       .  A
C1321      C1326   1.402       .  A
C1321      F1328   1.358       .  S
C1322      C1323   1.413       .  A
C1323      C1324   1.393       .  A
C1323      F1330   1.358       .  S
C1324      C1325   1.399       .  A
C1324      F1329   1.358       .  S
C1325      C1326   1.403       .  A
C1326      F1327   1.358       .  S
C1331      C1332   1.410       .  A
C1331      C1336   1.398       .  A
C1331      F1338   1.358       .  S
C1332      C1333   1.409       .  A
C1333      C1334   1.393       .  A
C1333      F1340   1.358       .  S
C1334      C1335   1.405       .  A
C1334      F1339   1.358       .  S
C1335      C1336   1.406       .  A
C1336      F1337   1.355       .  S
C1341      C1342   1.403       .  A
C1341      C1346   1.401       .  A
C1341      F1348   1.357       .  S
C1342      C1343   1.405       .  A
C1343      C1344   1.402       .  A
C1343      F1350   1.357       .  S
C1344      C1345   1.406       .  A
C1344      F1349   1.358       .  S
C1345      C1346   1.407       .  A
C1346      F1347   1.358       .  S
C1351      C1352   1.402       .  A
C1351      C1356   1.396       .  A
C1351      F1358   1.356       .  S
C1352      C1353   1.404       .  A
C1353      C1354   1.394       .  A
C1353      F1360   1.359       .  S
C1354      C1355   1.409       .  A
C1354      F1359   1.358       .  S
C1355      C1356   1.411       .  A
C1356      F1357   1.358       .  S
C1361      C1362   1.402       .  A
C1361      C1366   1.398       .  A
C1361      F1368   1.358       .  S
C1362      C1363   1.398       .  A
C1363      C1364   1.391       .  A
C1363      F1370   1.358       .  S
C1364      C1365   1.412       .  A
C1364      F1369   1.358       .  S
C1365      C1366   1.411       .  A
C1366      F1367   1.358       .  S
C1371      C1372   1.404       .  A
C1371      C1376   1.400       .  A
C1371      F1378   1.357       .  S
C1372      C1373   1.404       .  A
C1373      C1374   1.405       .  A
C1373      F1380   1.357       .  S
C1374      C1375   1.409       .  A
C1374      F1379   1.358       .  S
C1375      C1376   1.406       .  A
C1376      F1377   1.358       .  S
C1381      C1382   1.403       .  A
C1381      C1386   1.398       .  A
C1381      F1388   1.358       .  S
C1382      C1383   1.400       .  A
C1383      C1384   1.395       .  A
C1383      F1390   1.358       .  S
C1384      C1385   1.406       .  A
C1384      F1389   1.358       .  S
C1385      C1386   1.405       .  A
C1386      F1387   1.358       .  S
C1391      C1392   1.402       .  A
C1391      C1396   1.395       .  A
C1391      F1398   1.358       .  S
C1392      C1393   1.404       .  A
C1393      C1394   1.397       .  A
C1393      F1400   1.358       .  S
C1394      C1395   1.404       .  A
C1394      F1399   1.358       .  S
C1395      C1396   1.405       .  A
C1396      F1397   1.358       .  S
C1401      C1402   1.402       .  A
C1401      C1406   1.401       .  A
C1401      F1408   1.357       .  S
C1402      C1403   1.402       .  A
C1403      C1404   1.402       .  A
C1403      F1410   1.357       .  S
C1404      C1405   1.413       .  A
C1404      F1409   1.358       .  S
C1405      C1406   1.413       .  A
C1406      F1407   1.358       .  S
C1411      C1412   1.405       .  A
C1411      C1416   1.399       .  A
C1411      F1418   1.356       .  S
C1412      C1413   1.403       .  A
C1413      C1414   1.394       .  A
C1413      F1420   1.358       .  S
C1414      C1415   1.411       .  A
C1414      F1419   1.358       .  S
C1415      C1416   1.411       .  A
C1416      F1417   1.358       .  S
C1421      C1422   1.402       .  A
C1421      C1426   1.401       .  A
C1421      F1428   1.357       .  S
C1422      C1423   1.400       .  A
C1423      C1424   1.393       .  A
C1423      F1430   1.358       .  S
C1424      C1425   1.412       .  A
C1424      F1429   1.358       .  S
C1425      C1426   1.413       .  A
C1426      F1427   1.358       .  S
C1431      C1432   1.407       .  A
C1431      C1436   1.402       .  A
C1431      F1438   1.358       .  S
C1432      C1433   1.406       .  A
C1433      C1434   1.400       .  A
C1433      F1440   1.358       .  S
C1434      C1435   1.403       .  A
C1434      F1439   1.357       .  S
C1435      C1436   1.404       .  A
C1436      F1437   1.357       .  S
C1441      C1442   1.401       .  A
C1441      C1446   1.395       .  A
C1441      F1448   1.358       .  S
C1442      C1443   1.404       .  A
C1443      C1444   1.398       .  A
C1443      F1450   1.358       .  S
C1444      C1445   1.404       .  A
C1444      F1449   1.358       .  S
C1445      C1446   1.405       .  A
C1446      F1447   1.358       .  S
C1451      C1452   1.406       .  A
C1451      C1456   1.399       .  A
C1451      F1458   1.358       .  S
C1452      C1453   1.407       .  A
C1453      C1454   1.396       .  A
C1453      F1460   1.358       .  S
C1454      C1455   1.400       .  A
C1454      F1459   1.358       .  S
C1455      C1456   1.403       .  A
C1456      F1457   1.358       .  S
C1461      C1462   1.402       .  A
C1461      C1466   1.402       .  A
C1461      F1468   1.357       .  S
C1462      C1463   1.402       .  A
C1463      C1464   1.400       .  A
C1463      F1470   1.357       .  S
C1464      C1465   1.413       .  A
C1464      F1469   1.358       .  S
C1465      C1466   1.413       .  A
C1466      F1467   1.358       .  S
C1471      C1472   1.402       .  A
C1471      C1476   1.396       .  A
C1471      F1478   1.358       .  S
C1472      C1473   1.404       .  A
C1473      C1474   1.396       .  A
C1473      F1480   1.358       .  S
C1474      C1475   1.402       .  A
C1474      F1479   1.358       .  S
C1475      C1476   1.405       .  A
C1476      F1477   1.358       .  S
C1481      C1482   1.402       .  A
C1481      C1486   1.397       .  A
C1481      F1488   1.358       .  S
C1482      C1483   1.402       .  A
C1483      C1484   1.397       .  A
C1483      F1490   1.358       .  S
C1484      C1485   1.407       .  A
C1484      F1489   1.358       .  S
C1485      C1486   1.406       .  A
C1486      F1487   1.358       .  S
C1491      C1492   1.413       .  A
C1491      C1496   1.403       .  A
C1491      F1498   1.357       .  S
C1492      C1493   1.414       .  A
C1493      C1494   1.401       .  A
C1493      F1500   1.358       .  S
C1494      C1495   1.402       .  A
C1494      F1499   1.357       .  S
C1495      C1496   1.403       .  A
C1496      F1497   1.357       .  S
C1501      C1502   1.413       .  A
C1501      C1506   1.402       .  A
C1501      F1508   1.357       .  S
C1502      C1503   1.413       .  A
C1503      C1504   1.396       .  A
C1503      F1510   1.358       .  S
C1504      C1505   1.402       .  A
C1504      F1509   1.358       .  S
C1505      C1506   1.402       .  A
C1506      F1507   1.357       .  S
C1511      C1512   1.402       .  A
C1511      C1516   1.402       .  A
C1511      F1518   1.358       .  S
C1512      C1513   1.400       .  A
C1513      C1514   1.396       .  A
C1513      F1520   1.358       .  S
C1514      C1515   1.413       .  A
C1514      F1519   1.358       .  S
C1515      C1516   1.411       .  A
C1516      F1517   1.357       .  S
C1521      C1522   1.404       .  A
C1521      C1526   1.401       .  A
C1521      F1528   1.357       .  S
C1522      C1523   1.404       .  A
C1523      C1524   1.404       .  A
C1523      F1530   1.357       .  S
C1524      C1525   1.408       .  A
C1524      F1529   1.358       .  S
C1525      C1526   1.406       .  A
C1526      F1527   1.358       .  S
C1531      C1532   1.412       .  A
C1531      C1536   1.393       .  A
C1531      F1538   1.358       .  S
C1532      C1533   1.413       .  A
C1533      C1534   1.400       .  A
C1533      F1540   1.358       .  S
C1534      C1535   1.401       .  A
C1534      F1539   1.358       .  S
C1535      C1536   1.399       .  A
C1536      F1537   1.358       .  S
C1541      C1542   1.400       .  A
C1541      C1546   1.394       .  A
C1541      F1548   1.358       .  S
C1542      C1543   1.402       .  A
C1543      C1544   1.399       .  A
C1543      F1550   1.357       .  S
C1544      C1545   1.412       .  A
C1544      F1549   1.358       .  S
C1545      C1546   1.412       .  A
C1546      F1547   1.358       .  S
C1551      C1552   1.403       .  A
C1551      C1556   1.402       .  A
C1551      F1558   1.357       .  S
C1552      C1553   1.403       .  A
C1553      C1554   1.402       .  A
C1553      F1560   1.357       .  S
C1554      C1555   1.408       .  A
C1554      F1559   1.358       .  S
C1555      C1556   1.407       .  A
C1556      F1557   1.358       .  S
C1561      C1562   1.399       .  A
C1561      C1566   1.394       .  A
C1561      F1568   1.358       .  S
C1562      C1563   1.402       .  A
C1563      C1564   1.398       .  A
C1563      F1570   1.357       .  S
C1564      C1565   1.411       .  A
C1564      F1569   1.358       .  S
C1565      C1566   1.413       .  A
C1566      F1567   1.358       .  S
C1571      C1572   1.403       .  A
C1571      C1576   1.399       .  A
C1571      F1578   1.357       .  S
C1572      C1573   1.400       .  A
C1573      C1574   1.394       .  A
C1573      F1580   1.358       .  S
C1574      C1575   1.412       .  A
C1574      F1579   1.358       .  S
C1575      C1576   1.412       .  A
C1576      F1577   1.358       .  S
C1581      C1582   1.403       .  A
C1581      C1586   1.399       .  A
C1581      F1588   1.357       .  S
C1582      C1583   1.402       .  A
C1583      C1584   1.400       .  A
C1583      F1590   1.357       .  S
C1584      C1585   1.406       .  A
C1584      F1589   1.358       .  S
C1585      C1586   1.406       .  A
C1586      F1587   1.358       .  S
C1591      C1592   1.404       .  A
C1591      C1596   1.394       .  A
C1591      F1598   1.358       .  S
C1592      C1593   1.404       .  A
C1593      C1594   1.399       .  A
C1593      F1600   1.356       .  S
C1594      C1595   1.410       .  A
C1594      F1599   1.358       .  S
C1595      C1596   1.409       .  A
C1596      F1597   1.358       .  S
C1601      C1602   1.400       .  A
C1601      C1606   1.393       .  A
C1601      F1608   1.358       .  S
C1602      C1603   1.403       .  A
C1603      C1604   1.401       .  A
C1603      F1610   1.357       .  S
C1604      C1605   1.412       .  A
C1604      F1609   1.358       .  S
C1605      C1606   1.412       .  A
C1606      F1607   1.358       .  S
C1611      C1612   1.405       .  A
C1611      C1616   1.399       .  A
C1611      F1618   1.358       .  S
C1612      C1613   1.406       .  A
C1613      C1614   1.403       .  A
C1613      F1620   1.358       .  S
C1614      C1615   1.405       .  A
C1614      F1619   1.357       .  S
C1615      C1616   1.405       .  A
C1616      F1617   1.357       .  S
C1621      C1622   1.402       .  A
C1621      C1626   1.395       .  A
C1621      F1628   1.358       .  S
C1622      C1623   1.405       .  A
C1623      C1624   1.399       .  A
C1623      F1630   1.358       .  S
C1624      C1625   1.403       .  A
C1624      F1629   1.358       .  S
C1625      C1626   1.405       .  A
C1626      F1627   1.358       .  S
C1631      C1632   1.403       .  A
C1631      C1636   1.399       .  A
C1631      F1638   1.358       .  S
C1632      C1633   1.401       .  A
C1633      C1634   1.396       .  A
C1633      F1640   1.358       .  S
C1634      C1635   1.407       .  A
C1634      F1639   1.358       .  S
C1635      C1636   1.406       .  A
C1636      F1637   1.358       .  S
C1641      C1642   1.403       .  A
C1641      C1646   1.401       .  A
C1641      F1648   1.357       .  S
C1642      C1643   1.401       .  A
C1643      C1644   1.400       .  A
C1643      F1650   1.357       .  S
C1644      C1645   1.413       .  A
C1644      F1649   1.357       .  S
C1645      C1646   1.413       .  A
C1646      F1647   1.358       .  S
C1651      C1652   1.406       .  A
C1651      C1656   1.400       .  A
C1651      F1658   1.358       .  S
C1652      C1653   1.402       .  A
C1653      C1654   1.395       .  A
C1653      F1660   1.358       .  S
C1654      C1655   1.405       .  A
C1654      F1659   1.359       .  S
C1655      C1656   1.402       .  A
C1656      F1657   1.358       .  S
C1661      C1662   1.407       .  A
C1661      C1666   1.400       .  A
C1661      F1668   1.358       .  S
C1662      C1663   1.405       .  A
C1663      C1664   1.396       .  A
C1663      F1670   1.357       .  S
C1664      C1665   1.403       .  A
C1664      F1669   1.358       .  S
C1665      C1666   1.402       .  A
C1666      F1667   1.358       .  S
C1671      C1672   1.413       .  A
C1671      C1676   1.401       .  A
C1671      F1678   1.358       .  S
C1672      C1673   1.411       .  A
C1673      C1674   1.397       .  A
C1673      F1680   1.357       .  S
C1674      C1675   1.402       .  A
C1674      F1679   1.357       .  S
C1675      C1676   1.402       .  A
C1676      F1677   1.357       .  S
C1681      C1682   1.400       .  A
C1681      C1686   1.396       .  A
C1681      F1688   1.357       .  S
C1682      C1683   1.401       .  A
C1683      C1684   1.394       .  A
C1683      F1690   1.358       .  S
C1684      C1685   1.411       .  A
C1684      F1689   1.358       .  S
C1685      C1686   1.412       .  A
C1686      F1687   1.358       .  S
C1691      C1692   1.400       .  A
C1691      C1696   1.393       .  A
C1691      F1698   1.358       .  S
C1692      C1693   1.400       .  A
C1693      C1694   1.397       .  A
C1693      F1700   1.357       .  S
C1694      C1695   1.412       .  A
C1694      F1699   1.358       .  S
C1695      C1696   1.412       .  A
C1696      F1697   1.358       .  S
C1701      C1702   1.405       .  A
C1701      C1706   1.405       .  A
C1701      F1708   1.357       .  S
C1702      C1703   1.404       .  A
C1703      C1704   1.403       .  A
C1703      F1710   1.357       .  S
C1704      C1705   1.408       .  A
C1704      F1709   1.358       .  S
C1705      C1706   1.407       .  A
C1706      F1707   1.358       .  S
C1711      C1712   1.411       .  A
C1711      C1716   1.396       .  A
C1711      F1718   1.358       .  S
C1712      C1713   1.411       .  A
C1713      C1714   1.397       .  A
C1713      F1720   1.357       .  S
C1714      C1715   1.402       .  A
C1714      F1719   1.356       .  S
C1715      C1716   1.404       .  A
C1716      F1717   1.359       .  S
C1721      C1722   1.399       .  A
C1721      C1726   1.395       .  A
C1721      F1728   1.358       .  S
C1722      C1723   1.402       .  A
C1723      C1724   1.398       .  A
C1723      F1730   1.358       .  S
C1724      C1725   1.410       .  A
C1724      F1729   1.357       .  S
C1725      C1726   1.413       .  A
C1726      F1727   1.358       .  S
C1731      C1732   1.407       .  A
C1731      C1736   1.401       .  A
C1731      F1738   1.358       .  S
C1732      C1733   1.406       .  A
C1733      C1734   1.401       .  A
C1733      F1740   1.358       .  S
C1734      C1735   1.405       .  A
C1734      F1739   1.357       .  S
C1735      C1736   1.403       .  A
C1736      F1737   1.357       .  S
C1741      C1742   1.400       .  A
C1741      C1746   1.397       .  A
C1741      F1748   1.358       .  S
C1742      C1743   1.401       .  A
C1743      C1744   1.399       .  A
C1743      F1750   1.358       .  S
C1744      C1745   1.410       .  A
C1744      F1749   1.358       .  S
C1745      C1746   1.411       .  A
C1746      F1747   1.358       .  S
C1751      C1752   1.402       .  A
C1751      C1756   1.396       .  A
C1751      F1758   1.358       .  S
C1752      C1753   1.402       .  A
C1753      C1754   1.399       .  A
C1753      F1760   1.357       .  S
C1754      C1755   1.412       .  A
C1754      F1759   1.357       .  S
C1755      C1756   1.413       .  A
C1756      F1757   1.358       .  S
C1761      C1762   1.403       .  A
C1761      C1766   1.400       .  A
C1761      F1768   1.357       .  S
C1762      C1763   1.403       .  A
C1763      C1764   1.402       .  A
C1763      F1770   1.357       .  S
C1764      C1765   1.408       .  A
C1764      F1769   1.358       .  S
C1765      C1766   1.407       .  A
C1766      F1767   1.358       .  S
C1771      C1772   1.403       .  A
C1771      C1776   1.398       .  A
C1771      F1778   1.358       .  S
C1772      C1773   1.406       .  A
C1773      C1774   1.399       .  A
C1773      F1780   1.358       .  S
C1774      C1775   1.402       .  A
C1774      F1779   1.358       .  S
C1775      C1776   1.405       .  A
C1776      F1777   1.358       .  S
C1781      C1782   1.406       .  A
C1781      C1786   1.399       .  A
C1781      F1788   1.358       .  S
C1782      C1783   1.403       .  A
C1783      C1784   1.397       .  A
C1783      F1790   1.357       .  S
C1784      C1785   1.405       .  A
C1784      F1789   1.358       .  S
C1785      C1786   1.403       .  A
C1786      F1787   1.358       .  S
C1791      C1792   1.404       .  A
C1791      C1796   1.405       .  A
C1791      F1798   1.357       .  S
C1792      C1793   1.400       .  A
C1793      C1794   1.398       .  A
C1793      F1800   1.357       .  S
C1794      C1795   1.414       .  A
C1794      F1799   1.357       .  S
C1795      C1796   1.414       .  A
C1796      F1797   1.357       .  S
C1801      C1802   1.412       .  A
C1801      C1806   1.395       .  A
C1801      F1808   1.358       .  S
C1802      C1803   1.412       .  A
C1803      C1804   1.397       .  A
C1803      F1810   1.357       .  S
C1804      C1805   1.400       .  A
C1804      F1809   1.357       .  S
C1805      C1806   1.400       .  A
C1806      F1807   1.358       .  S
C1811      C1812   1.410       .  A
C1811      C1816   1.396       .  A
C1811      F1818   1.358       .  S
C1812      C1813   1.411       .  A
C1813      C1814   1.396       .  A
C1813      F1820   1.358       .  S
C1814      C1815   1.400       .  A
C1814      F1819   1.358       .  S
C1815      C1816   1.401       .  A
C1816      F1817   1.357       .  S
C1821      C1822   1.408       .  A
C1821      C1826   1.401       .  A
C1821      F1828   1.358       .  S
C1822      C1823   1.409       .  A
C1823      C1824   1.402       .  A
C1823      F1830   1.358       .  S
C1824      C1825   1.403       .  A
C1824      F1829   1.357       .  S
C1825      C1826   1.403       .  A
C1826      F1827   1.357       .  S
C1831      C1832   1.401       .  A
C1831      C1836   1.400       .  A
C1831      F1838   1.357       .  S
C1832      C1833   1.399       .  A
C1833      C1834   1.395       .  A
C1833      F1840   1.358       .  S
C1834      C1835   1.413       .  A
C1834      F1839   1.358       .  S
C1835      C1836   1.412       .  A
C1836      F1837   1.358       .  S
C1841      C1842   1.400       .  A
C1841      C1846   1.396       .  A
C1841      F1848   1.358       .  S
C1842      C1843   1.402       .  A
C1843      C1844   1.398       .  A
C1843      F1850   1.357       .  S
C1844      C1845   1.410       .  A
C1844      F1849   1.358       .  S
C1845      C1846   1.411       .  A
C1846      F1847   1.358       .  S
C1851      C1852   1.408       .  A
C1851      C1856   1.399       .  A
C1851      F1858   1.358       .  S
C1852      C1853   1.409       .  A
C1853      C1854   1.403       .  A
C1853      F1860   1.358       .  S
C1854      C1855   1.403       .  A
C1854      F1859   1.357       .  S
C1855      C1856   1.401       .  A
C1856      F1857   1.357       .  S
C1861      C1862   1.403       .  A
C1861      C1866   1.399       .  A
C1861      F1868   1.357       .  S
C1862      C1863   1.400       .  A
C1863      C1864   1.394       .  A
C1863      F1870   1.358       .  S
C1864      C1865   1.412       .  A
C1864      F1869   1.358       .  S
C1865      C1866   1.412       .  A
C1866      F1867   1.358       .  S
C1871      C1872   1.400       .  A
C1871      C1876   1.393       .  A
C1871      F1878   1.358       .  S
C1872      C1873   1.403       .  A
C1873      C1874   1.401       .  A
C1873      F1880   1.357       .  S
C1874      C1875   1.412       .  A
C1874      F1879   1.358       .  S
C1875      C1876   1.412       .  A
C1876      F1877   1.358       .  S
C1881      C1882   1.406       .  A
C1881      C1886   1.399       .  A
C1881      F1888   1.358       .  S
C1882      C1883   1.407       .  A
C1883      C1884   1.403       .  A
C1883      F1890   1.358       .  S
C1884      C1885   1.404       .  A
C1884      F1889   1.357       .  S
C1885      C1886   1.403       .  A
C1886      F1887   1.357       .  S
C1891      C1892   1.401       .  A
C1891      C1896   1.393       .  A
C1891      F1898   1.358       .  S
C1892      C1893   1.402       .  A
C1893      C1894   1.398       .  A
C1893      F1900   1.357       .  S
C1894      C1895   1.412       .  A
C1894      F1899   1.358       .  S
C1895      C1896   1.410       .  A
C1896      F1897   1.358       .  S
C1901      C1902   1.404       .  A
C1901      C1906   1.399       .  A
C1901      F1908   1.357       .  S
C1902      C1903   1.403       .  A
C1903      C1904   1.392       .  A
C1903      F1910   1.358       .  S
C1904      C1905   1.409       .  A
C1904      F1909   1.358       .  S
C1905      C1906   1.412       .  A
C1906      F1907   1.358       .  S
C1911      C1912   1.408       .  A
C1911      C1916   1.403       .  A
C1911      F1918   1.358       .  S
C1912      C1913   1.405       .  A
C1913      C1914   1.400       .  A
C1913      F1920   1.358       .  S
C1914      C1915   1.404       .  A
C1914      F1919   1.357       .  S
C1915      C1916   1.404       .  A
C1916      F1917   1.357       .  S
C1921      C1922   1.398       .  A
C1921      C1926   1.393       .  A
C1921      F1928   1.358       .  S
C1922      C1923   1.403       .  A
C1923      C1924   1.401       .  A
C1923      F1930   1.358       .  S
C1924      C1925   1.411       .  A
C1924      F1929   1.357       .  S
C1925      C1926   1.414       .  A
C1926      F1927   1.358       .  S
C1931      C1932   1.412       .  A
C1931      C1936   1.394       .  A
C1931      F1938   1.358       .  S
C1932      C1933   1.413       .  A
C1933      C1934   1.399       .  A
C1933      F1940   1.358       .  S
C1934      C1935   1.401       .  A
C1934      F1939   1.358       .  S
C1935      C1936   1.400       .  A
C1936      F1937   1.358       .  S
C1941      C1942   1.406       .  A
C1941      C1946   1.401       .  A
C1941      F1948   1.357       .  S
C1942      C1943   1.407       .  A
C1943      C1944   1.402       .  A
C1943      F1950   1.358       .  S
C1944      C1945   1.404       .  A
C1944      F1949   1.357       .  S
C1945      C1946   1.404       .  A
C1946      F1947   1.357       .  S
C1951      C1952   1.402       .  A
C1951      C1956   1.400       .  A
C1951      F1958   1.358       .  S
C1952      C1953   1.400       .  A
C1953      C1954   1.394       .  A
C1953      F1960   1.358       .  S
C1954      C1955   1.412       .  A
C1954      F1959   1.358       .  S
C1955      C1956   1.413       .  A
C1956      F1957   1.358       .  S
C1961      C1962   1.401       .  A
C1961      C1966   1.400       .  A
C1961      F1968   1.358       .  S
C1962      C1963   1.399       .  A
C1963      C1964   1.394       .  A
C1963      F1970   1.358       .  S
C1964      C1965   1.413       .  A
C1964      F1969   1.358       .  S
C1965      C1966   1.412       .  A
C1966      F1967   1.358       .  S
C1971      C1972   1.406       .  A
C1971      C1976   1.401       .  A
C1971      F1978   1.358       .  S
C1972      C1973   1.406       .  A
C1973      C1974   1.402       .  A
C1973      F1980   1.358       .  S
C1974      C1975   1.404       .  A
C1974      F1979   1.357       .  S
C1975      C1976   1.404       .  A
C1976      F1977   1.357       .  S
C1981      C1982   1.404       .  A
C1981      C1986   1.399       .  A
C1981      F1988   1.358       .  S
C1982      C1983   1.400       .  A
C1983      C1984   1.395       .  A
C1983      F1990   1.358       .  S
C1984      C1985   1.406       .  A
C1984      F1989   1.358       .  S
C1985      C1986   1.405       .  A
C1986      F1987   1.358       .  S
C1991      C1992   1.400       .  A
C1991      C1996   1.394       .  A
C1991      F1998   1.358       .  S
C1992      C1993   1.403       .  A
C1993      C1994   1.398       .  A
C1993      F2000   1.358       .  S
C1994      C1995   1.406       .  A
C1994      F1999   1.358       .  S
C1995      C1996   1.407       .  A
C1996      F1997   1.358       .  S
C2001      C2002   1.403       .  A
C2001      C2006   1.402       .  A
C2001      F2008   1.357       .  S
C2002      C2003   1.404       .  A
C2003      C2004   1.401       .  A
C2003      F2010   1.357       .  S
C2004      C2005   1.413       .  A
C2004      F2009   1.358       .  S
C2005      C2006   1.413       .  A
C2006      F2007   1.357       .  S
C2011      C2012   1.402       .  A
C2011      C2016   1.399       .  A
C2011      F2018   1.357       .  S
C2012      C2013   1.401       .  A
C2013      C2014   1.397       .  A
C2013      F2020   1.358       .  S
C2014      C2015   1.410       .  A
C2014      F2019   1.358       .  S
C2015      C2016   1.409       .  A
C2016      F2017   1.358       .  S
C2021      C2022   1.406       .  A
C2021      C2026   1.400       .  A
C2021      F2028   1.358       .  S
C2022      C2023   1.402       .  A
C2023      C2024   1.399       .  A
C2023      F2030   1.358       .  S
C2024      C2025   1.408       .  A
C2024      F2029   1.358       .  S
C2025      C2026   1.404       .  A
C2026      F2027   1.358       .  S
C2031      C2032   1.404       .  A
C2031      C2036   1.404       .  A
C2031      F2038   1.355       .  S
C2032      C2033   1.402       .  A
C2033      C2034   1.401       .  A
C2033      F2040   1.357       .  S
C2034      C2035   1.413       .  A
C2034      F2039   1.357       .  S
C2035      C2036   1.412       .  A
C2036      F2037   1.358       .  S
C2041      C2042   1.402       .  A
C2041      C2046   1.397       .  A
C2041      F2048   1.357       .  S
C2042      C2043   1.403       .  A
C2043      C2044   1.397       .  A
C2043      F2050   1.358       .  S
C2044      C2045   1.412       .  A
C2044      F2049   1.358       .  S
C2045      C2046   1.411       .  A
C2046      F2047   1.357       .  S
C2051      C2052   1.402       .  A
C2051      C2056   1.399       .  A
C2051      F2058   1.358       .  S
C2052      C2053   1.401       .  A
C2053      C2054   1.397       .  A
C2053      F2060   1.357       .  S
C2054      C2055   1.411       .  A
C2054      F2059   1.357       .  S
C2055      C2056   1.414       .  A
C2056      F2057   1.358       .  S
C2061      C2062   1.406       .  A
C2061      C2066   1.400       .  A
C2061      F2068   1.358       .  S
C2062      C2063   1.406       .  A
C2063      C2064   1.402       .  A
C2063      F2070   1.358       .  S
C2064      C2065   1.405       .  A
C2064      F2069   1.357       .  S
C2065      C2066   1.404       .  A
C2066      F2067   1.357       .  S
C2071      C2072   1.403       .  A
C2071      C2076   1.399       .  A
C2071      F2078   1.358       .  S
C2072      C2073   1.401       .  A
C2073      C2074   1.394       .  A
C2073      F2080   1.358       .  S
C2074      C2075   1.407       .  A
C2074      F2079   1.358       .  S
C2075      C2076   1.406       .  A
C2076      F2077   1.358       .  S
C2081      C2082   1.401       .  A
C2081      C2086   1.395       .  A
C2081      F2088   1.358       .  S
C2082      C2083   1.404       .  A
C2083      C2084   1.398       .  A
C2083      F2090   1.358       .  S
C2084      C2085   1.402       .  A
C2084      F2089   1.358       .  S
C2085      C2086   1.404       .  A
C2086      F2087   1.358       .  S
C2091      C2092   1.401       .  A
C2091      C2096   1.399       .  A
C2091      F2098   1.357       .  S
C2092      C2093   1.403       .  A
C2093      C2094   1.402       .  A
C2093      F2100   1.357       .  S
C2094      C2095   1.412       .  A
C2094      F2099   1.357       .  S
C2095      C2096   1.412       .  A
C2096      F2097   1.358       .  S
C2101      C2102   1.402       .  A
C2101      C2106   1.394       .  A
C2101      F2108   1.358       .  S
C2102      C2103   1.403       .  A
C2103      C2104   1.398       .  A
C2103      F2110   1.356       .  S
C2104      C2105   1.411       .  A
C2104      F2109   1.358       .  S
C2105      C2106   1.410       .  A
C2106      F2107   1.358       .  S
C2111      C2112   1.403       .  A
C2111      C2116   1.400       .  A
C2111      F2118   1.357       .  S
C2112      C2113   1.401       .  A
C2113      C2114   1.394       .  A
C2113      F2120   1.359       .  S
C2114      C2115   1.413       .  A
C2114      F2119   1.358       .  S
C2115      C2116   1.411       .  A
C2116      F2117   1.357       .  S
C2121      C2122   1.402       .  A
C2121      C2126   1.399       .  A
C2121      F2128   1.357       .  S
C2122      C2123   1.404       .  A
C2123      C2124   1.403       .  A
C2123      F2130   1.357       .  S
C2124      C2125   1.408       .  A
C2124      F2129   1.358       .  S
C2125      C2126   1.407       .  A
C2126      F2127   1.358       .  S
C2131      C2132   1.401       .  A
C2131      C2136   1.395       .  A
C2131      F2138   1.358       .  S
C2132      C2133   1.406       .  A
C2133      C2134   1.399       .  A
C2133      F2140   1.358       .  S
C2134      C2135   1.402       .  A
C2134      F2139   1.358       .  S
C2135      C2136   1.406       .  A
C2136      F2137   1.358       .  S
C2141      C2142   1.402       .  A
C2141      C2146   1.396       .  A
C2141      F2148   1.358       .  S
C2142      C2143   1.404       .  A
C2143      C2144   1.398       .  A
C2143      F2150   1.358       .  S
C2144      C2145   1.404       .  A
C2144      F2149   1.358       .  S
C2145      C2146   1.405       .  A
C2146      F2147   1.358       .  S
C2151      C2152   1.401       .  A
C2151      C2156   1.400       .  A
C2151      F2158   1.357       .  S
C2152      C2153   1.403       .  A
C2153      C2154   1.403       .  A
C2153      F2160   1.357       .  S
C2154      C2155   1.412       .  A
C2154      F2159   1.358       .  S
C2155      C2156   1.413       .  A
C2156      F2157   1.358       .  S
C2161      C2162   1.412       .  A
C2161      C2166   1.403       .  A
C2161      F2168   1.358       .  S
C2162      C2163   1.413       .  A
C2163      C2164   1.395       .  A
C2163      F2170   1.358       .  S
C2164      C2165   1.401       .  A
C2164      F2169   1.358       .  S
C2165      C2166   1.404       .  A
C2166      F2167   1.357       .  S
C2171      C2172   1.401       .  A
C2171      C2176   1.395       .  A
C2171      F2178   1.358       .  S
C2172      C2173   1.404       .  A
C2173      C2174   1.400       .  A
C2173      F2180   1.357       .  S
C2174      C2175   1.411       .  A
C2174      F2179   1.358       .  S
C2175      C2176   1.413       .  A
C2176      F2177   1.358       .  S
C2181      C2182   1.406       .  A
C2181      C2186   1.401       .  A
C2181      F2188   1.358       .  S
C2182      C2183   1.406       .  A
C2183      C2184   1.398       .  A
C2183      F2190   1.358       .  S
C2184      C2185   1.402       .  A
C2184      F2189   1.357       .  S
C2185      C2186   1.403       .  A
C2186      F2187   1.357       .  S
C2191      C2192   1.401       .  A
C2191      C2196   1.396       .  A
C2191      F2198   1.358       .  S
C2192      C2193   1.405       .  A
C2193      C2194   1.401       .  A
C2193      F2200   1.358       .  S
C2194      C2195   1.405       .  A
C2194      F2199   1.358       .  S
C2195      C2196   1.406       .  A
C2196      F2197   1.358       .  S
C2201      C2202   1.404       .  A
C2201      C2206   1.397       .  A
C2201      F2208   1.357       .  S
C2202      C2203   1.407       .  A
C2203      C2204   1.401       .  A
C2203      F2210   1.358       .  S
C2204      C2205   1.404       .  A
C2204      F2209   1.358       .  S
C2205      C2206   1.403       .  A
C2206      F2207   1.358       .  S
C2211      C2212   1.412       .  A
C2211      C2216   1.399       .  A
C2211      F2218   1.358       .  S
C2212      C2213   1.412       .  A
C2213      C2214   1.399       .  A
C2213      F2220   1.358       .  S
C2214      C2215   1.403       .  A
C2214      F2219   1.357       .  S
C2215      C2216   1.402       .  A
C2216      F2217   1.357       .  S
C2221      C2222   1.403       .  A
C2221      C2226   1.397       .  A
C2221      F2228   1.358       .  S
C2222      C2223   1.405       .  A
C2223      C2224   1.400       .  A
C2223      F2230   1.358       .  S
C2224      C2225   1.404       .  A
C2224      F2229   1.358       .  S
C2225      C2226   1.405       .  A
C2226      F2227   1.358       .  S
C2231      C2232   1.404       .  A
C2231      C2236   1.400       .  A
C2231      F2238   1.358       .  S
C2232      C2233   1.402       .  A
C2233      C2234   1.396       .  A
C2233      F2240   1.358       .  S
C2234      C2235   1.405       .  A
C2234      F2239   1.358       .  S
C2235      C2236   1.406       .  A
C2236      F2237   1.358       .  S
C2241      C2242   1.401       .  A
C2241      C2246   1.399       .  A
C2241      F2248   1.357       .  S
C2242      C2243   1.401       .  A
C2243      C2244   1.399       .  A
C2243      F2250   1.357       .  S
C2244      C2245   1.413       .  A
C2244      F2249   1.358       .  S
C2245      C2246   1.411       .  A
C2246      F2247   1.357       .  S
C2251      C2252   1.404       .  A
C2251      C2256   1.399       .  A
C2251      F2258   1.358       .  S
C2252      C2253   1.401       .  A
C2253      C2254   1.396       .  A
C2253      F2260   1.358       .  S
C2254      C2255   1.407       .  A
C2254      F2259   1.358       .  S
C2255      C2256   1.406       .  A
C2256      F2257   1.358       .  S
C2261      C2262   1.401       .  A
C2261      C2266   1.397       .  A
C2261      F2268   1.358       .  S
C2262      C2263   1.406       .  A
C2263      C2264   1.401       .  A
C2263      F2270   1.358       .  S
C2264      C2265   1.404       .  A
C2264      F2269   1.358       .  S
C2265      C2266   1.407       .  A
C2266      F2267   1.358       .  S
C2271      C2272   1.405       .  A
C2271      C2276   1.401       .  A
C2271      F2278   1.357       .  S
C2272      C2273   1.403       .  A
C2273      C2274   1.399       .  A
C2273      F2280   1.356       .  S
C2274      C2275   1.412       .  A
C2274      F2279   1.357       .  S
C2275      C2276   1.413       .  A
C2276      F2277   1.358       .  S
