geometry optimzed in LAMMPS
_audit_creation_date              2020-11-30 
_audit_creation_method            'lammps2cif' 
_symmetry_space_group_name_H-M    'P1' 
_symmetry_Int_Tables_number       1 
_symmetry_cell_setting            triclinic 
loop_ 
_symmetry_equiv_pos_as_xyz 
  x,y,z 
_cell_length_a                    33.13073753 
_cell_length_b                    33.086553315567855 
_cell_length_c                    33.1147933728458 
_cell_angle_alpha                 89.82204334133392 
_cell_angle_beta                  90.00459081946093 
_cell_angle_gamma                 89.99444387772444 
loop_ 
_atom_site_label 
_atom_site_type_symbol 
_atom_site_fract_x 
_atom_site_fract_y 
_atom_site_fract_z 
_atom_site_charge 
C1          C  0.49970580  0.35596173  0.07737616     0.43300
N2          N  0.47962626  0.40484274  0.03951039     0.02200
C3          C  0.60683754  0.54437156  0.94712693    -0.05700
H4          H  0.60948164  0.55835267  0.08903742     0.07700
C5          C  0.45292880  0.60069566  0.08206629    -0.06000
Co6        Co  0.55092944  0.44670456  0.00232444     0.74200
N7          N  0.57595876  0.51495402  0.05465230    -0.25200
Co8        Co  0.54343769  0.54966768  0.01403455     0.74100
C9          C  0.48827044  0.61982176  0.10042107     0.43400
N10         N  0.40818505  0.50522178  0.04735882     0.01800
N11         N  0.50790652  0.57421276  0.05900261     0.01900
N12         N  0.61341528  0.47668270  0.93997115    -0.46100
H13         H  0.56640716  0.37304611  0.06793103     0.07700
N14         N  0.57873547  0.47547015  0.05042632     0.02200
N15         N  0.51148195  0.58428477  0.97296543     0.01900
C16         C  0.49590750  0.63501993  0.93578231     0.43500
N17         N  0.41024664  0.46554945  0.04316638    -0.24700
C18         C  0.53906945  0.39159408  0.92912879    -0.05600
N19         N  0.46658411  0.37343037  0.06087931    -0.45800
N20         N  0.52699556  0.61481174  0.95247300    -0.46000
C21         C  0.50515192  0.37010067  0.91090723     0.43300
N22         N  0.58272402  0.48591168  0.96405029     0.02200
N23         N  0.41332768  0.47498390  0.95734986    -0.24700
N24         N  0.51934575  0.40830362  0.04055166    -0.25200
N25         N  0.41173186  0.51473239  0.96105150     0.01800
H26         H  0.37689648  0.43253917  0.92426865     0.07700
H27         H  0.42768109  0.62184207  0.94288450     0.07800
N28         N  0.57897774  0.52525080  0.96910065    -0.25200
N29         N  0.46817462  0.57321827  0.05656857    -0.24800
N30         N  0.48257833  0.41426966  0.95298076     0.02200
C31         C  0.62410923  0.49020811  0.09412876     0.43600
C32         C  0.38105531  0.44859714  0.06571185    -0.06100
N33         N  0.47174537  0.58290462  0.97099459    -0.24800
H34         H  0.42156164  0.60961698  0.08341415     0.07700
N35         N  0.60732352  0.45952944  0.07328720    -0.46100
H36         H  0.37331851  0.41685355  0.06567739     0.07700
C37         C  0.36498790  0.50102771  0.91829472     0.43400
C38         C  0.53459082  0.37923303  0.06407931    -0.05600
Co39       Co  0.44617139  0.43946902  0.99819446     0.73800
N40         N  0.37837273  0.51657616  0.07136119    -0.45800
C41         C  0.62983952  0.51224895  0.92791124     0.43700
N42         N  0.47119051  0.38568455  0.92744500    -0.45800
Co43       Co  0.43965335  0.54401298  0.00894808     0.73900
C44         C  0.45890899  0.61374834  0.94778883    -0.06100
C45         C  0.60302923  0.52715068  0.08202953    -0.05700
N46         N  0.52227221  0.41764942  0.95492051    -0.25200
N47         N  0.52100866  0.60181155  0.08450067    -0.46000
H48         H  0.61287433  0.57645268  0.94840653     0.07700
C49         C  0.38510309  0.46349785  0.93063374    -0.06100
Cl50       Cl  0.49498833  0.49490891  0.00581868    -0.49100
C51         C  0.35977777  0.48266875  0.08431141     0.43500
H52         H  0.57094265  0.38481726  0.92826301     0.07700
N53         N  0.38315176  0.53123660  0.93855775    -0.45800
N54         N  0.19084916  0.47587760  0.20372856    -0.02600
C55         C  0.23134855  0.47651168  0.19672532     0.00000
C56         C  0.25273000  0.47210140  0.23222027    -0.22900
C57         C  0.22490257  0.46846172  0.26241196    -0.23100
C58         C  0.18737753  0.47090863  0.24442193    -0.00100
H59         H  0.28522018  0.47167731  0.23566405     0.13600
H60         H  0.23125764  0.46532205  0.29433529     0.13700
N61         N  0.79585138  0.47933464  0.20568150    -0.02600
C62         C  0.75543272  0.47399439  0.20217517     0.00000
C63         C  0.73751351  0.47019390  0.23963483    -0.22900
C64         C  0.76775348  0.47372847  0.26747664    -0.23100
C65         C  0.80299185  0.47938487  0.24595255    -0.00100
H66         H  0.70565395  0.46661250  0.24594641     0.13600
H67         H  0.76439543  0.47330208  0.29999010     0.13700
N68         N  0.18896495  0.51041474  0.81170622    -0.02600
C69         C  0.18135195  0.51305729  0.77146615     0.00000
C70         C  0.21585152  0.52244776  0.75009120    -0.22900
C71         C  0.24624033  0.52549882  0.77773239    -0.23100
C72         C  0.22923519  0.51782910  0.81503226    -0.00100
H73         H  0.21857751  0.52613984  0.71771307     0.13600
H74         H  0.27769406  0.53161705  0.77132101     0.13700
N75         N  0.79782826  0.52287609  0.81056671    -0.02600
C76         C  0.80391802  0.52387091  0.77005470     0.00000
C77         C  0.76883131  0.53352708  0.74976393    -0.22900
C78         C  0.73967319  0.53837443  0.77851417    -0.23100
C79         C  0.75800273  0.53139437  0.81534861    -0.00100
H80         H  0.76476854  0.53568833  0.71739117     0.13600
H81         H  0.70806009  0.54464171  0.77311863     0.13700
N82         N  0.99254681  0.49000698  0.94517321    -0.35800
N83         N  0.92908886  0.49381978  0.00733080    -0.56300
N84         N  0.99088715  0.48867150  0.07072673    -0.35800
N85         N  0.05444046  0.49198251  0.00909888    -0.56300
C86         C  0.96000986  0.49969466  0.92216350     0.27800
C87         C  0.02612775  0.49758699  0.92292616     0.27800
C88         C  0.95746458  0.49472095  0.09358291     0.27800
C89         C  0.02365622  0.49416321  0.09469046     0.27800
C90         C  0.90569163  0.49002679  0.97400465     0.36400
C91         C  0.90474053  0.48763489  0.03965808     0.36400
C92         C  0.07855648  0.48648943  0.97645804     0.36400
C93         C  0.07773023  0.48581222  0.04228282     0.36400
C94         C  0.97315609  0.51293332  0.88460864    -0.21000
C95         C  0.01468053  0.51156619  0.88507060    -0.21000
C96         C  0.96917902  0.50391575  0.13271437    -0.21000
C97         C  0.01078749  0.50364301  0.13339203    -0.21000
C98         C  0.86624168  0.48168271  0.98527137    -0.22100
C99         C  0.86564886  0.48012747  0.02673975    -0.22100
C100        C  0.11736207  0.47713829  0.98905120    -0.22100
C101        C  0.11684906  0.47671884  0.03052060    -0.22100
C102        C  0.91871842  0.49627584  0.93359986    -0.17400
C103        C  0.06686271  0.49179604  0.93541365    -0.17400
C104        C  0.06480428  0.48929223  0.08316057    -0.17400
C105        C  0.91667934  0.49046255  0.08075649    -0.17400
H106        H  0.95477819  0.52290435  0.85945825     0.15500
H107        H  0.03420326  0.52037567  0.86036498     0.15500
H108        H  0.94975765  0.51003986  0.15825921     0.15500
H109        H  0.02942919  0.50956920  0.15955288     0.15500
H110        H  0.84048611  0.47729488  0.96565411     0.13700
H111        H  0.83933133  0.47439879  0.04525798     0.13700
H112        H  0.14344044  0.47116786  0.97031707     0.13700
H113        H  0.14246195  0.47027194  0.04977169     0.13700
H114        H  0.99188023  0.47752699  0.97391464     0.27000
H115        H  0.99124412  0.47925098  0.04096839     0.27000
C116        C  0.07972050  0.48740101  0.37695533     0.43300
N117        N  0.03683017  0.47431423  0.42381603     0.02200
C118        C  0.92873878  0.61106179  0.53999054    -0.05700
H119        H  0.06690236  0.61530971  0.57331582     0.07700
C120        C  0.05710147  0.46068869  0.62297002    -0.06000
Co121      Co  0.99668027  0.54893147  0.45498025     0.74200
N122        N  0.03967162  0.57810365  0.52797999    -0.25200
Co123      Co  0.99462082  0.54813720  0.55954462     0.74100
C124        C  0.07258484  0.49698009  0.64270316     0.43400
N125        N  0.03333836  0.41055318  0.52762739     0.01800
N126        N  0.03597291  0.51445388  0.59227808     0.01900
N127        N  0.93172386  0.61258640  0.47173405    -0.46100
H128        H  0.07076512  0.55611690  0.38486572     0.07700
N129        N  0.04095742  0.57837567  0.48814182     0.02200
N130        N  0.94961792  0.51761590  0.59093192     0.01900
C131        C  0.90988434  0.50223123  0.63963782     0.43500
N132        N  0.03303819  0.41061221  0.48777657    -0.24700
C133        C  0.92895359  0.53376002  0.39338108    -0.05600
N134        N  0.06058321  0.45727747  0.39664420    -0.45800
N135        N  0.92743859  0.53344203  0.62008906    -0.46000
C136        C  0.91172190  0.49821189  0.37398396     0.43300
N137        N  0.95422355  0.58303430  0.48678421     0.02200
N138        N  0.94708989  0.41322915  0.48733654    -0.24700
N139        N  0.03869698  0.51416796  0.42313096    -0.25200
N140        N  0.94669458  0.41346272  0.52719359     0.01800
H141        H  0.92066181  0.37374289  0.44338193     0.07700
H142        H  0.91978450  0.43415155  0.62971796     0.07800
N143        N  0.95342170  0.58202516  0.52663031    -0.25200
N144        N  0.03435385  0.47460527  0.59249081    -0.24800
N145        N  0.94989333  0.47902997  0.42280202     0.02200
C146        C  0.08205319  0.62504797  0.50607346     0.43600
C147        C  0.05762201  0.38153616  0.47440361    -0.06100
N148        N  0.94838895  0.47772933  0.59086731    -0.24800
H149        H  0.05804411  0.42960051  0.63309210     0.07700
N150        N  0.06544185  0.60653845  0.47382118    -0.46100
H151        H  0.06128208  0.37328562  0.44307917     0.07700
C152        C  0.90770960  0.36415237  0.51134442     0.43400
C153        C  0.06523918  0.52536671  0.39453292    -0.05600
Co154      Co  0.99149417  0.44426575  0.45514744     0.73800
N155        N  0.05664312  0.38176481  0.54274515    -0.45800
C156        C  0.91456260  0.63146972  0.50354417     0.43700
N157        N  0.92624752  0.46545285  0.39365650    -0.45800
Co158      Co  0.99073830  0.44388835  0.55956918     0.73900
C159        C  0.92338410  0.46519004  0.62004613    -0.06100
C160        C  0.06509902  0.60605314  0.54209594    -0.05700
N161        N  0.95244405  0.51886937  0.42272523    -0.25200
N162        N  0.05815776  0.52900761  0.62203950    -0.46000
H163        H  0.92502743  0.61956437  0.57127757     0.07700
C164        C  0.92292956  0.38340774  0.47441674    -0.06100
Cl165      Cl  0.99331698  0.49629188  0.50730197    -0.49100
C166        C  0.07294673  0.36212732  0.51096490     0.43500
H167        H  0.92846799  0.56504318  0.38389414     0.07700
N168        N  0.92379118  0.38458002  0.54260798    -0.45800
N169        N  0.49302566  0.79777633  0.20341546    -0.02600
C170        C  0.49004063  0.80468904  0.24371142     0.00000
C171        C  0.48697018  0.76903995  0.26520690    -0.22900
C172        C  0.48816941  0.73866422  0.23754521    -0.23100
C173        C  0.49193493  0.75689026  0.20018709    -0.00100
H174        H  0.48443452  0.76564455  0.29763231     0.13600
H175        H  0.48652354  0.70657843  0.24383888     0.13700
N176        N  0.49373571  0.19003781  0.19970638    -0.02600
C177        C  0.49637855  0.23054506  0.19353565     0.00000
C178        C  0.49263945  0.25139121  0.22938623    -0.22900
C179        C  0.48741659  0.22305459  0.25896155    -0.23100
C180        C  0.48824605  0.18592754  0.24012231    -0.00100
H181        H  0.49349289  0.28383010  0.23343650     0.13600
H182        H  0.48402319  0.22874619  0.29095597     0.13700
N183        N  0.49847771  0.19206269  0.80613104    -0.02600
C184        C  0.50483264  0.23272650  0.80826332     0.00000
C185        C  0.50466054  0.25015664  0.77036863    -0.22900
C186        C  0.49751867  0.21982026  0.74359256    -0.23100
C187        C  0.49367714  0.18476240  0.76594866    -0.00100
H188        H  0.50817945  0.28190244  0.76318331     0.13600
H189        H  0.49501770  0.22290745  0.71113288     0.13700
N190        N  0.50952302  0.79501324  0.80757726    -0.02600
C191        C  0.50836933  0.79645926  0.76651046     0.00000
C192        C  0.51288210  0.75836326  0.75016991    -0.22900
C193        C  0.51658346  0.73216606  0.78183740    -0.23100
C194        C  0.51410845  0.75513268  0.81644156    -0.00100
H195        H  0.51267217  0.75049230  0.71846190     0.13600
H196        H  0.51944714  0.69963287  0.77997762     0.13700
N197        N  0.49970277  0.05590813  0.00425895    -0.35800
N198        N  0.49864699  0.99476418  0.94052226    -0.56300
N199        N  0.50445227  0.93079720  0.00239022    -0.37600
N200        N  0.49816562  0.99196318  0.06586796    -0.56300
C201        C  0.49082887  0.07919440  0.97166772     0.27800
C202        C  0.49076194  0.07767021  0.03769662     0.27800
C203        C  0.49696540  0.90869411  0.96873010     0.27800
C204        C  0.49607673  0.90713636  0.03496850     0.27800
C205        C  0.50475765  0.02840966  0.91782809     0.36400
C206        C  0.50730994  0.96268961  0.91666465     0.36400
C207        C  0.50374449  0.02455818  0.08991533     0.36400
C208        C  0.50548686  0.95888623  0.08895704     0.36400
C209        C  0.47619016  0.11623402  0.98461663    -0.21000
C210        C  0.47619251  0.11529157  0.02620581    -0.21000
C211        C  0.48402777  0.87043271  0.98012571    -0.21000
C212        C  0.48346181  0.86946291  0.02176358    -0.21000
C213        C  0.51712983  0.01759306  0.87937171    -0.22100
C214        C  0.51877782  0.97608082  0.87864124    -0.22100
C215        C  0.51436489  0.01210317  0.12847067    -0.22100
C216        C  0.51554373  0.97060863  0.12785506    -0.22100
C217        C  0.49747399  0.06870694  0.93064312    -0.17400
C218        C  0.49727380  0.06534688  0.07826925    -0.17400
C219        C  0.50065734  0.91820188  0.07626177    -0.17400
C220        C  0.50311886  0.92145211  0.92803701    -0.17400
H221        H  0.46670292  0.14147315  0.96603565     0.15500
H222        H  0.46671251  0.13966351  0.04576896     0.15500
H223        H  0.47574533  0.84571146  0.96046202     0.15500
H224        H  0.47464854  0.84387730  0.04019726     0.15500
H225        H  0.52424756  0.03753231  0.85439668     0.13700
H226        H  0.52744312  0.95786591  0.85297618     0.13700
H227        H  0.52044506  0.03094174  0.15443159     0.13700
H228        H  0.52277935  0.95127470  0.15326759     0.13700
H229        H  0.51330259  0.02775202  0.00377068     0.27000
H230        H  0.51649169  0.95962342  0.00301496     0.27000
N231        N  0.18905611  0.79994539  0.48717362    -0.02600
C232        C  0.18431805  0.75917194  0.48810206     0.00000
C233        C  0.22030777  0.73954235  0.48069807    -0.22900
C234        C  0.24865303  0.76887283  0.47515824    -0.23100
C235        C  0.22891361  0.80532075  0.47944527    -0.00100
H236        H  0.22537164  0.70722480  0.48009992     0.13600
H237        H  0.28058064  0.76425193  0.46997795     0.13700
N238        N  0.79449079  0.19328091  0.52198481    -0.02600
C239        C  0.75393173  0.18769158  0.52066890     0.00000
C240        C  0.73352580  0.22369618  0.52552889    -0.22900
C241        C  0.76223195  0.25291950  0.52994232    -0.23100
C242        C  0.79910863  0.23366365  0.52751665    -0.00100
H243        H  0.70114481  0.22808091  0.52575347     0.13600
H244        H  0.75691840  0.28499610  0.53345452     0.13700
N245        N  0.19175987  0.19488006  0.51265102    -0.02600
C246        C  0.18674489  0.23519427  0.51850126     0.00000
C247        C  0.22340540  0.25496516  0.51969543    -0.22900
C248        C  0.25237272  0.22615940  0.51451942    -0.23100
C249        C  0.23239325  0.18980630  0.51037881    -0.00100
H250        H  0.22839300  0.28707505  0.52339069     0.13600
H251        H  0.28467556  0.23104270  0.51396745     0.13700
N252        N  0.79777777  0.80107468  0.48915361    -0.02600
C253        C  0.75756535  0.80626681  0.48300501     0.00000
C254        C  0.73831645  0.76958469  0.47830890    -0.22900
C255        C  0.76728857  0.74047924  0.48210662    -0.23100
C256        C  0.80324256  0.76037010  0.48893421    -0.00100
H257        H  0.70632963  0.76458911  0.47391696     0.13600
H258        H  0.76262921  0.70812777  0.48084292     0.13700
N259        N  0.93108259  0.99832018  0.50445396    -0.35800
N260        N  0.99357446  0.06091294  0.50937661    -0.56300
N261        N  0.05609435  0.99836584  0.50202238    -0.35800
N262        N  0.99369705  0.93536962  0.50477542    -0.56300
C263        C  0.90819158  0.03094714  0.51380283     0.27800
C264        C  0.90836493  0.96487577  0.51110215     0.27800
C265        C  0.07922113  0.03112186  0.51036423     0.27800
C266        C  0.07913942  0.96495724  0.50785567     0.27800
C267        C  0.96058347  0.08484509  0.50520878     0.36400
C268        C  0.02631004  0.08488333  0.50376403     0.36400
C269        C  0.96076221  0.91224255  0.49749641     0.36400
C270        C  0.02632745  0.91222411  0.49627591     0.36400
C271        C  0.87033290  0.01797759  0.52625438    -0.21000
C272        C  0.87042324  0.97641165  0.52445780    -0.21000
C273        C  0.11757709  0.01829189  0.52133419    -0.21000
C274        C  0.11751860  0.97668256  0.51975588    -0.21000
C275        C  0.97250541  0.12423872  0.49728566    -0.22100
C276        C  0.01397078  0.12425843  0.49634076    -0.22100
C277        C  0.97256869  0.87419419  0.48467521    -0.22100
C278        C  0.01400761  0.87418435  0.48388925    -0.22100
C279        C  0.91984230  0.07215656  0.51001926    -0.17400
C280        C  0.92015696  0.92430285  0.50370151    -0.17400
C281        C  0.06715683  0.92426780  0.50098765    -0.17400
C282        C  0.06725768  0.07231850  0.50700984    -0.17400
H283        H  0.84513084  0.03651892  0.53564546     0.15500
H284        H  0.84532994  0.95689063  0.53211097     0.15500
H285        H  0.14307044  0.03695841  0.52963112     0.15500
H286        H  0.14294912  0.95727171  0.52652696     0.15500
H287        H  0.95334957  0.15032505  0.49256629     0.13700
H288        H  0.03285724  0.15037832  0.49079655     0.13700
H289        H  0.95333741  0.84903845  0.47661072     0.13700
H290        H  0.03288703  0.84902278  0.47505428     0.13700
H291        H  0.95985536  0.99888785  0.49217283     0.27000
H292        H  0.02684722  0.99885984  0.49090309     0.27000
C293        C  0.49767275  0.91757155  0.37014880     0.43300
N294        N  0.47887571  0.95644710  0.41808069     0.02200
C295        C  0.60096096  0.06407346  0.54856636    -0.05700
H296        H  0.61625270  0.92420694  0.57087318     0.07700
C297        C  0.45676126  0.91734583  0.61162017    -0.06000
Co298      Co  0.54744345  0.99988159  0.45598416     0.74200
N299        N  0.57810989  0.95373868  0.52710504    -0.25200
Co300      Co  0.54174882  0.99317499  0.56033180     0.74100
C301        C  0.49307503  0.90251572  0.63197367     0.43400
N302        N  0.40884263  0.94636275  0.51663414     0.01800
N303        N  0.50995097  0.94631207  0.58727360     0.01900
N304        N  0.60437234  0.06703074  0.48043857    -0.46100
H305        H  0.56497347  0.93080563  0.38279291     0.07700
N306        N  0.57923714  0.95583028  0.48729542     0.02200
N307        N  0.50512403  0.03287816  0.59305641     0.01900
C308        C  0.48312527  0.07068341  0.64083201     0.43500
N309        N  0.41217438  0.95016636  0.47713310    -0.24700
C310        C  0.52897541  0.06908484  0.39602458    -0.05600
N311        N  0.46519720  0.93319988  0.38883996    -0.45800
N312        N  0.51698577  0.05608594  0.62335858    -0.46000
C313        C  0.49262128  0.08373881  0.37564062     0.43300
N314        N  0.57543149  0.04234156  0.49257905     0.02200
N315        N  0.40855502  0.03600349  0.48326577    -0.24700
N316        N  0.51860908  0.95758633  0.41968953    -0.25200
N317        N  0.40489122  0.03295881  0.52282440     0.01800
H318        H  0.37467771  0.06714939  0.43761859     0.07700
H319        H  0.41700586  0.05519580  0.62586004     0.07800
N320        N  0.57324883  0.03963269  0.53231749    -0.25200
N321        N  0.47016612  0.94458321  0.58484913    -0.24800
N322        N  0.47562279  0.04299934  0.42313441     0.02200
C323        C  0.62855366  0.91661722  0.50258628     0.43600
C324        C  0.38492154  0.92675643  0.45909120    -0.06100
N325        N  0.46540104  0.03069622  0.59033745    -0.24800
H326        H  0.42538152  0.91282307  0.61932932     0.07700
N327        N  0.60888339  0.93430609  0.47161634    -0.46100
H328        H  0.37826054  0.92749802  0.42714261     0.07700
C329        C  0.35830567  0.07421994  0.50484174     0.43400
C330        C  0.53342679  0.93358300  0.39066007    -0.05600
Co331      Co  0.44388414  0.99652984  0.45040057     0.73800
N332        N  0.37873401  0.92207662  0.52694626    -0.45800
C333        C  0.62182408  0.08200281  0.51399410     0.43700
N334        N  0.46088454  0.06615214  0.39408965    -0.45800
Co335      Co  0.43700586  0.98846064  0.55397236     0.73900
C336        C  0.44885957  0.05393248  0.61888728    -0.06100
C337        C  0.60802680  0.92930392  0.53968922    -0.05700
N338        N  0.51538801  0.04370319  0.42451917    -0.25200
N339        N  0.52473997  0.92211748  0.61550168    -0.46000
H340        H  0.60864104  0.06495648  0.58027701     0.07700
C341        C  0.38085294  0.06170042  0.46922880    -0.06100
Cl342      Cl  0.49254322  0.99452021  0.50522641    -0.49100
C343        C  0.36239462  0.90842241  0.49209738     0.43500
H344        H  0.56028443  0.07248676  0.38746896     0.07700
N345        N  0.37469176  0.05505314  0.53703868    -0.45800
C346        C  0.72796621  0.86217041  0.52273902    -0.20500
C347        C  0.73447924  0.84411335  0.48503156    -0.08500
C348        C  0.70898757  0.85383943  0.45267621     0.30400
C349        C  0.67566777  0.87875511  0.45866888    -0.20500
C350        C  0.66671426  0.89398164  0.49718627    -0.08500
C351        C  0.69414299  0.88687102  0.52899510     0.30400
F352        F  0.68774619  0.90233062  0.56632769    -0.19000
H353        H  0.74702419  0.85431790  0.54817320     0.18700
H354        H  0.65550786  0.88419001  0.43347701     0.18700
F355        F  0.71428774  0.83614966  0.41611763    -0.19000
C356        C  0.85411652  0.83253562  0.52720409    -0.20500
C357        C  0.82792104  0.83228906  0.49382469    -0.08500
C358        C  0.83196059  0.86266400  0.46426743     0.30400
C359        C  0.86161672  0.89255836  0.46797416    -0.20500
C360        C  0.88787296  0.89282127  0.50119562    -0.08500
C361        C  0.88372881  0.86270654  0.53105565     0.30400
F362        F  0.90820551  0.86268645  0.56392039    -0.19000
H363        H  0.85133795  0.80955755  0.55037613     0.18700
H364        H  0.86453673  0.91531234  0.44456406     0.18700
F365        F  0.80804359  0.86254761  0.43102217    -0.19000
C366        C  0.31164821  0.12184514  0.47056148    -0.20500
C367        C  0.32118783  0.09897250  0.50503302    -0.08500
C368        C  0.29562297  0.10109289  0.53898985     0.30400
C369        C  0.26252620  0.12749578  0.53887853    -0.20500
C370        C  0.25490497  0.15209015  0.50518749    -0.08500
C371        C  0.27911220  0.14836679  0.47071480     0.30400
F372        F  0.27354967  0.17330006  0.43853579    -0.19000
H373        H  0.33071292  0.12118519  0.44405987     0.18700
H374        H  0.24487830  0.13113633  0.56616949     0.18700
F375        F  0.30353610  0.07920973  0.57280677    -0.19000
C376        C  0.13193333  0.16117344  0.54171861    -0.20500
C377        C  0.16059735  0.16428687  0.51061958    -0.08500
C378        C  0.15821510  0.13723590  0.47795593     0.30400
C379        C  0.12796526  0.10745846  0.47689351    -0.20500
C380        C  0.09947464  0.10420267  0.50824561    -0.08500
C381        C  0.10179126  0.13143781  0.54070935     0.30400
F382        F  0.07500544  0.12901474  0.57161917    -0.19000
H383        H  0.13331859  0.18160863  0.56715155     0.18700
H384        H  0.12651913  0.08704232  0.45142891     0.18700
F385        F  0.18431943  0.14039270  0.44655170    -0.19000
C386        C  0.71222080  0.14273016  0.47952186    -0.20500
C387        C  0.73187077  0.14972300  0.51629364    -0.08500
C388        C  0.71801391  0.13052614  0.55139166     0.30400
C389        C  0.68295170  0.10720795  0.55026630    -0.20500
C390        C  0.66113866  0.10299001  0.51411132    -0.08500
C391        C  0.67704280  0.11957773  0.47828596     0.30400
F392        F  0.65703674  0.11624742  0.44266999    -0.19000
H393        H  0.72188365  0.15850915  0.45247470     0.18700
H394        H  0.67197860  0.09426026  0.57820070     0.18700
F395        F  0.73566156  0.13827928  0.58754775    -0.19000
C396        C  0.82630901  0.13567460  0.48637032    -0.20500
C397        C  0.82590897  0.16307656  0.51870338    -0.08500
C398        C  0.85648987  0.16036191  0.54809863     0.30400
C399        C  0.88687808  0.13103283  0.54502219    -0.20500
C400        C  0.88751509  0.10381963  0.51255338    -0.08500
C401        C  0.85685979  0.10641269  0.48316824     0.30400
F402        F  0.85666210  0.08073444  0.45128643    -0.19000
H403        H  0.80318780  0.13732664  0.46333282     0.18700
H404        H  0.90984565  0.12925731  0.56824012     0.18700
F405        F  0.85621808  0.18528616  0.58053100    -0.19000
C406        C  0.30862771  0.87691634  0.45005077    -0.20500
C407        C  0.32267878  0.88850158  0.48839486    -0.08500
C408        C  0.29849476  0.88057998  0.52246859     0.30400
C409        C  0.26309613  0.85798090  0.51843594    -0.20500
C410        C  0.25152369  0.84320207  0.48057603    -0.08500
C411        C  0.27323289  0.85460896  0.44613978     0.30400
F412        F  0.26234520  0.84063639  0.40919626    -0.19000
H413        H  0.32597790  0.88304324  0.42307379     0.18700
H414        H  0.24691575  0.84868382  0.54534349     0.18700
F415        F  0.31002093  0.89261692  0.55986857    -0.19000
C416        C  0.10217055  0.86180782  0.52757061    -0.20500
C417        C  0.09925613  0.89248463  0.49820618    -0.08500
C418        C  0.12653720  0.89236195  0.46572091     0.30400
C419        C  0.15601578  0.86215048  0.46271720    -0.20500
C420        C  0.15884110  0.83122513  0.49179930    -0.08500
C421        C  0.13168572  0.83146088  0.52450864     0.30400
F422        F  0.13437760  0.80319148  0.55408731    -0.19000
H423        H  0.08154966  0.86149632  0.55294766     0.18700
H424        H  0.17634314  0.86238309  0.43712252     0.18700
F425        F  0.12406709  0.92105924  0.43644821    -0.19000
C426        C  0.46618494  0.83030032  0.71622766    -0.20500
C427        C  0.50098716  0.83148216  0.74026630    -0.08500
C428        C  0.53230605  0.85812043  0.73016595     0.30400
C429        C  0.52925795  0.88202562  0.69527177    -0.20500
C430        C  0.49509260  0.87925549  0.67004867    -0.08500
C431        C  0.46322186  0.85367473  0.68135316     0.30400
F432        F  0.43053516  0.84867231  0.65722008    -0.19000
H433        H  0.44244365  0.80875283  0.72290016     0.18700
H434        H  0.55415814  0.90169658  0.68729570     0.18700
F435        F  0.56693592  0.85857373  0.75207223    -0.19000
C436        C  0.53688722  0.82980788  0.86723713    -0.20500
C437        C  0.50780288  0.82785491  0.83639756    -0.08500
C438        C  0.47763063  0.85784358  0.83495258     0.30400
C439        C  0.47631900  0.88835670  0.86446810    -0.20500
C440        C  0.50514077  0.88971384  0.89572302    -0.08500
C441        C  0.53579713  0.86034989  0.89638500     0.30400
F442        F  0.56491491  0.86138778  0.92518884    -0.19000
H443        H  0.56082659  0.80756897  0.86851893     0.18700
H444        H  0.45245671  0.91070468  0.86330055     0.18700
F445        F  0.44861287  0.85689109  0.80609859    -0.19000
C446        C  0.45054237  0.14399149  0.72186197    -0.20500
C447        C  0.48545774  0.14612107  0.74572549    -0.08500
C448        C  0.51715607  0.11902308  0.73853830     0.30400
C449        C  0.51558118  0.09324436  0.70509599    -0.20500
C450        C  0.48215375  0.09389846  0.67888747    -0.08500
C451        C  0.44875819  0.11821537  0.68866896     0.30400
F452        F  0.41599412  0.12022532  0.66415496    -0.19000
H453        H  0.42617383  0.16532156  0.72657606     0.18700
H454        H  0.54129032  0.07409825  0.69866265     0.18700
F455        F  0.55122417  0.12045523  0.76123668    -0.19000
C456        C  0.46644340  0.13315485  0.83986878    -0.20500
C457        C  0.49681944  0.16286517  0.83890792    -0.08500
C458        C  0.52677115  0.16199655  0.86916411     0.30400
C459        C  0.52644659  0.13185201  0.89913641    -0.20500
C460        C  0.49655311  0.10172038  0.89945995    -0.08500
C461        C  0.46627019  0.10291042  0.86970815     0.30400
F462        F  0.43657987  0.07466209  0.86950025    -0.19000
H463        H  0.44280456  0.13332286  0.81731845     0.18700
H464        H  0.55013569  0.13142924  0.92168117     0.18700
F465        F  0.55754144  0.18900519  0.86865777    -0.19000
C466        C  0.45120285  0.14093192  0.28582449    -0.20500
C467        C  0.48642367  0.14845897  0.26366733    -0.08500
C468        C  0.52272192  0.13016873  0.27550348     0.30400
C469        C  0.52445418  0.10792087  0.31139748    -0.20500
C470        C  0.48991631  0.10351958  0.33569723    -0.08500
C471        C  0.45275285  0.11852820  0.32152841     0.30400
F472        F  0.41848485  0.11438491  0.34362934    -0.19000
H473        H  0.42319403  0.15566560  0.27746489     0.18700
H474        H  0.55324803  0.09576319  0.32089405     0.18700
F475        F  0.55734187  0.13769963  0.25488318    -0.19000
C476        C  0.46361801  0.13038396  0.16687635    -0.20500
C477        C  0.49544115  0.15825796  0.16992159    -0.08500
C478        C  0.52826750  0.15495360  0.14317184     0.30400
C479        C  0.52880706  0.12461438  0.11364707    -0.20500
C480        C  0.49671016  0.09706397  0.11033912    -0.08500
C481        C  0.46405191  0.10019260  0.13724992     0.30400
F482        F  0.43226461  0.07450945  0.13429255    -0.19000
H483        H  0.43800664  0.13263020  0.18705041     0.18700
H484        H  0.55432013  0.12250356  0.09331025     0.18700
F485        F  0.56014579  0.18048248  0.14617953    -0.19000
C486        C  0.53045331  0.88455045  0.31066510    -0.20500
C487        C  0.49529484  0.89441826  0.33220936    -0.08500
C488        C  0.45763846  0.88104303  0.31762861     0.30400
C489        C  0.45574878  0.85583504  0.28410251    -0.20500
C490        C  0.49107645  0.84352476  0.26459910    -0.08500
C491        C  0.52840240  0.85912331  0.27708021     0.30400
F492        F  0.56312650  0.84643134  0.25943928    -0.19000
H493        H  0.55973565  0.89480653  0.32083660     0.18700
H494        H  0.42693264  0.84292463  0.27555521     0.18700
F495        F  0.42277106  0.88980060  0.33728359    -0.19000
C496        C  0.46584434  0.85780315  0.16837136    -0.20500
C497        C  0.49536821  0.82750417  0.17131982    -0.08500
C498        C  0.52654109  0.82666456  0.14241591     0.30400
C499        C  0.52787904  0.85562798  0.11121432    -0.20500
C500        C  0.49823074  0.88597082  0.10831127    -0.08500
C501        C  0.46704357  0.88656225  0.13720460     0.30400
F502        F  0.43769983  0.91512145  0.13524688    -0.19000
H503        H  0.44146833  0.85882299  0.19011413     0.18700
H504        H  0.55243936  0.85483458  0.08965021     0.18700
F505        F  0.55640589  0.79875472  0.14518590    -0.19000
C506        C  0.87150409  0.31458712  0.55479574    -0.20500
C507        C  0.88605977  0.32525542  0.51631381    -0.08500
C508        C  0.87884548  0.29888283  0.48371725     0.30400
C509        C  0.85441802  0.26482245  0.48902823    -0.20500
C510        C  0.83678033  0.25678061  0.52657967    -0.08500
C511        C  0.84673554  0.28086805  0.55985406     0.30400
F512        F  0.82958504  0.27374574  0.59644032    -0.19000
H513        H  0.87724465  0.33371784  0.58064915     0.18700
H514        H  0.84633516  0.24680471  0.46297813     0.18700
F515        F  0.89363138  0.30660018  0.44634393    -0.19000
C516        C  0.86823821  0.68159736  0.53493133    -0.20500
C517        C  0.89133542  0.66961878  0.50151472    -0.08500
C518        C  0.89104819  0.69388992  0.46644724     0.30400
C519        C  0.86565690  0.72769207  0.46406000    -0.20500
C520        C  0.84052349  0.73768468  0.49654733    -0.08500
C521        C  0.84291566  0.71517368  0.53243393     0.30400
F522        F  0.81765100  0.72334107  0.56365827    -0.19000
H523        H  0.86785260  0.66363839  0.56230421     0.18700
H524        H  0.86328165  0.74412750  0.43581301     0.18700
F525        F  0.91399356  0.68414531  0.43395996    -0.19000
C526        C  0.11610486  0.31578501  0.55105275    -0.20500
C527        C  0.09649124  0.32438090  0.51449305    -0.08500
C528        C  0.10056572  0.29715555  0.48201080     0.30400
C529        C  0.12647586  0.26392740  0.48533307    -0.20500
C530        C  0.14872181  0.25772303  0.52073420    -0.08500
C531        C  0.14225547  0.28293263  0.55409049     0.30400
F532        F  0.16412530  0.27782997  0.58840207    -0.19000
H533        H  0.11310333  0.33589746  0.57662814     0.18700
H534        H  0.13178493  0.24512141  0.45913206     0.18700
F535        F  0.08085785  0.30312896  0.44660756    -0.19000
C536        C  0.10156037  0.68720596  0.46805546    -0.20500
C537        C  0.10285852  0.66438296  0.50395444    -0.08500
C538        C  0.12459659  0.67932934  0.53716907     0.30400
C539        C  0.14670171  0.71493970  0.53342375    -0.20500
C540        C  0.14776929  0.73601182  0.49667260    -0.08500
C541        C  0.12394709  0.72280850  0.46437810     0.30400
F542        F  0.12577226  0.74191767  0.42808924    -0.19000
H543        H  0.08463173  0.67659980  0.44219553     0.18700
H544        H  0.16629155  0.72394042  0.55802413     0.18700
F545        F  0.12762759  0.65793890  0.57204858    -0.19000
C546        C  0.86693091  0.54511818  0.73646848    -0.20500
C547        C  0.84085660  0.51386528  0.74799554    -0.08500
C548        C  0.84179569  0.47705945  0.72711869     0.30400
C549        C  0.86593930  0.47281086  0.69294930    -0.20500
C550        C  0.88916237  0.50537850  0.67891696    -0.08500
C551        C  0.89112075  0.54098302  0.70211722     0.30400
F552        F  0.91474342  0.57249350  0.69060506    -0.19000
H553        H  0.86589681  0.57392303  0.75190485     0.18700
H554        H  0.86419826  0.44496455  0.67596345     0.18700
F555        F  0.81585504  0.44688101  0.73712542    -0.19000
C556        C  0.85227583  0.48087829  0.84051211    -0.20500
C557        C  0.82731706  0.51519412  0.84184747    -0.08500
C558        C  0.83257426  0.54303973  0.87344032     0.30400
C559        C  0.86215284  0.53663598  0.90300890    -0.20500
C560        C  0.88705445  0.50229978  0.90181070    -0.08500
C561        C  0.88176389  0.47431662  0.87030873     0.30400
F562        F  0.90495303  0.44056247  0.86858758    -0.19000
H563        H  0.84863702  0.45899689  0.81657437     0.18700
H564        H  0.86594763  0.55871311  0.92679594     0.18700
F565        F  0.80997558  0.57720390  0.87487507    -0.19000
C566        C  0.12194453  0.54020014  0.73618341    -0.20500
C567        C  0.14300971  0.50639905  0.75052220    -0.08500
C568        C  0.13645295  0.46859468  0.73260853     0.30400
C569        C  0.11145418  0.46526548  0.69888156    -0.20500
C570        C  0.09335581  0.49975270  0.68205513    -0.08500
C571        C  0.09719035  0.53705422  0.70218585     0.30400
F572        F  0.07909966  0.57098129  0.68778468    -0.19000
H573        H  0.12762062  0.56974506  0.74902195     0.18700
H574        H  0.10880678  0.43617777  0.68426784     0.18700
F575        F  0.15802713  0.43585026  0.74471781    -0.19000
C576        C  0.13251139  0.47130772  0.84241471    -0.20500
C577        C  0.16012213  0.50358962  0.84390547    -0.08500
C578        C  0.15719158  0.53123659  0.87595044     0.30400
C579        C  0.12734403  0.52681718  0.90561196    -0.20500
C580        C  0.09952914  0.49482467  0.90405247    -0.08500
C581        C  0.10245535  0.46691786  0.87210931     0.30400
F582        F  0.07602887  0.43568641  0.86946602    -0.19000
H583        H  0.13412604  0.44955206  0.81820129     0.18700
H584        H  0.12534081  0.54897710  0.92953483     0.18700
F585        F  0.18192720  0.56384489  0.87739611    -0.19000
C586        C  0.88972423  0.45977059  0.31340980    -0.20500
C587        C  0.89049519  0.49636597  0.33484087    -0.08500
C588        C  0.86949929  0.52994122  0.31923159     0.30400
C589        C  0.84505717  0.52548970  0.28521243    -0.20500
C590        C  0.84120612  0.48778681  0.26642676    -0.08500
C591        C  0.86523706  0.45545461  0.27940501     0.30400
F592        F  0.86179656  0.41859636  0.26195416    -0.19000
H593        H  0.90641493  0.43374812  0.32420626     0.18700
H594        H  0.82591301  0.55044082  0.27601109     0.18700
F595        F  0.86941163  0.56597441  0.33866015    -0.19000
C596        C  0.87808134  0.45157427  0.13310652    -0.20500
C597        C  0.88463991  0.48812545  0.11254108    -0.08500
C598        C  0.86087129  0.52195568  0.12253856     0.30400
C599        C  0.83147937  0.51918347  0.15308551    -0.20500
C600        C  0.82526846  0.48259803  0.17374684    -0.08500
C601        C  0.84855651  0.44876391  0.16325810     0.30400
F602        F  0.84233064  0.41284212  0.18206496    -0.19000
H603        H  0.89585319  0.42515362  0.12564329     0.18700
H604        H  0.81385494  0.54555785  0.16092070     0.18700
F605        F  0.86649006  0.55766108  0.10307857    -0.19000
C606        C  0.14382798  0.43889521  0.29562717    -0.20500
C607        C  0.15045274  0.47141627  0.26915937    -0.08500
C608        C  0.13076372  0.50823714  0.27628186     0.30400
C609        C  0.10715949  0.51321155  0.31104007    -0.20500
C610        C  0.10265420  0.48142229  0.33899100    -0.08500
C611        C  0.12014229  0.44366968  0.33018355     0.30400
F612        F  0.11687595  0.41215821  0.35634727    -0.19000
H613        H  0.15971533  0.41062422  0.29116404     0.18700
H614        H  0.09346034  0.54235257  0.31661841     0.18700
F615        F  0.13757348  0.54048866  0.25179867    -0.19000
C616        C  0.15677383  0.51355175  0.14872560    -0.20500
C617        C  0.15862834  0.47973724  0.17441207    -0.08500
C618        C  0.12860812  0.44982545  0.17098798     0.30400
C619        C  0.09794144  0.45339918  0.14184783    -0.20500
C620        C  0.09630270  0.48704630  0.11583069    -0.08500
C621        C  0.12570865  0.51749402  0.12007815     0.30400
F622        F  0.12430955  0.55105550  0.09647121    -0.19000
H623        H  0.17923705  0.53716189  0.15126679     0.18700
H624        H  0.07571257  0.42956178  0.13911672     0.18700
F625        F  0.12973759  0.41651897  0.19496288    -0.19000
C626        C  0.46745863  0.25937828  0.13091431    -0.20500
C627        C  0.50139313  0.25208100  0.15512105    -0.08500
C628        C  0.53597130  0.27596737  0.15013861     0.30400
C629        C  0.53565591  0.30847045  0.12333232    -0.20500
C630        C  0.50062129  0.31817538  0.10143817    -0.08500
C631        C  0.46692295  0.29232361  0.10419918     0.30400
F632        F  0.43289768  0.29988051  0.08266353    -0.19000
H633        H  0.44024180  0.24173377  0.13522175     0.18700
H634        H  0.56214612  0.32752854  0.12186148     0.18700
F635        F  0.56867995  0.27024433  0.17422562    -0.19000
C636        C  0.45690272  0.68533491  0.12199112    -0.20500
C637        C  0.49048750  0.65934940  0.12079213    -0.08500
C638        C  0.52691095  0.67181560  0.13869234     0.30400
C639        C  0.52875350  0.70814694  0.15962194    -0.20500
C640        C  0.49439061  0.73238448  0.16364250    -0.08500
C641        C  0.45877188  0.72165211  0.14346707     0.30400
F642        F  0.42481769  0.74416727  0.14793357    -0.19000
H643        H  0.42875639  0.67695573  0.10772479     0.18700
H644        H  0.55599149  0.71541033  0.17622377     0.18700
F645        F  0.55997281  0.64757116  0.13870635    -0.19000
C646        C  0.47479661  0.73027110  0.87493973    -0.20500
C647        C  0.51247303  0.73591241  0.85642314    -0.08500
C648        C  0.54541677  0.71251502  0.86892160     0.30400
C649        C  0.53987660  0.68118115  0.89652817    -0.20500
C650        C  0.50130584  0.67245252  0.91190385    -0.08500
C651        C  0.46915972  0.69880714  0.90281381     0.30400
F652        F  0.43215619  0.69347759  0.91951468    -0.19000
H653        H  0.44902145  0.74800249  0.86530323     0.18700
H654        H  0.56544665  0.66209902  0.90380772     0.18700
F655        F  0.58216442  0.71759538  0.85150353    -0.19000
C656        C  0.67717682  0.55617323  0.88924115    -0.20500
C657        C  0.66741649  0.51755926  0.90418032    -0.08500
C658        C  0.69344423  0.48502567  0.89555196     0.30400
C659        C  0.72665613  0.49072963  0.86990376    -0.20500
C660        C  0.73426416  0.52878618  0.85274879    -0.08500
C661        C  0.71018142  0.56175223  0.86376524     0.30400
F662        F  0.71695671  0.59886362  0.84750205    -0.19000
H663        H  0.65816534  0.58197721  0.89549761     0.18700
H664        H  0.74458819  0.46485018  0.86103084     0.18700
F665        F  0.68609996  0.44754988  0.91059230    -0.19000
C666        C  0.54313677  0.28021193  0.85040299    -0.20500
C667        C  0.50742903  0.25838412  0.84429917    -0.08500
C668        C  0.47160606  0.27200296  0.86223618     0.30400
C669        C  0.47129662  0.30795447  0.88442407    -0.20500
C670        C  0.50669269  0.33101774  0.88897671    -0.08500
C671        C  0.54299301  0.31611704  0.87246477     0.30400
F672        F  0.57793252  0.33727464  0.87497796    -0.19000
H673        H  0.57063995  0.27106443  0.83525025     0.18700
H674        H  0.44294021  0.31848096  0.89679434     0.18700
F675        F  0.43620321  0.25275110  0.85482967    -0.19000
C676        C  0.30203817  0.47205154  0.88759908    -0.20500
C677        C  0.32601880  0.50586645  0.89683029    -0.08500
C678        C  0.31234139  0.54455095  0.88531190     0.30400
C679        C  0.27708904  0.54876791  0.86260782    -0.20500
C680        C  0.25462630  0.51477015  0.85128127    -0.08500
C681        C  0.26656920  0.47644128  0.86500129     0.30400
F682        F  0.24622942  0.44292672  0.85306646    -0.19000
H683        H  0.31136939  0.44199505  0.89653239     0.18700
H684        H  0.26892434  0.57838782  0.85117899     0.18700
F685        F  0.33429984  0.57816217  0.89358055    -0.19000
C686        C  0.30027568  0.44592778  0.11383861    -0.20500
C687        C  0.32120849  0.48232442  0.10721879    -0.08500
C688        C  0.30535451  0.51826766  0.12364202     0.30400
C689        C  0.27158770  0.51698468  0.14897037    -0.20500
C690        C  0.25262556  0.48017363  0.15789969    -0.08500
C691        C  0.26624630  0.44485053  0.13891928     0.30400
F692        F  0.24904380  0.40868519  0.14786482    -0.19000
H693        H  0.31117478  0.41788408  0.10115712     0.18700
H694        H  0.26227571  0.54430403  0.16434518     0.18700
F695        F  0.32390116  0.55435290  0.11753095    -0.19000
C696        C  0.72147208  0.51409183  0.14976397    -0.20500
C697        C  0.73123423  0.47591926  0.16527693    -0.08500
C698        C  0.70781547  0.44236785  0.15451490     0.30400
C699        C  0.67386383  0.44735281  0.13014852    -0.20500
C700        C  0.66217395  0.48599215  0.11694479    -0.08500
C701        C  0.68711431  0.51932509  0.12586307     0.30400
F702        F  0.67793694  0.55713873  0.11293434    -0.19000
H703        H  0.73846842  0.54045316  0.15901057     0.18700
H704        H  0.65547469  0.42115473  0.12341488     0.18700
F705        F  0.71587418  0.40536326  0.17039258    -0.19000
loop_ 
_geom_bond_atom_site_label_1 
_geom_bond_atom_site_label_2 
_geom_bond_distance 
_geom_bond_site_symmetry_2 
_ccdc_geom_bond_type 
C1           N19   1.354       .  A
C1           C38   1.456       .  S
C1          C630   1.481       .  S
N2           N19   1.328       .  A
N2           N24   1.321       .  A
N2          Co39   2.098   1_554  S
C3           N28   1.334       .  A
C3           C41   1.456       .  S
C3           H48   1.081       .  S
H4           C45   1.080       .  S
C5           N29   1.341       .  A
C5            C9   1.464       .  S
C5           H34   1.081       .  S
Co6          N24   2.074       .  S
Co6          N14   2.074       .  S
Co6          N46   2.073   1_554  S
Co6          N22   2.095   1_554  S
Co6         Cl50   2.448       .  S
N7           C45   1.338       .  A
N7           N14   1.317       .  A
N7           Co8   2.069       .  S
Co8          N11   2.066       .  S
Co8          N28   2.064   1_554  S
Co8          N15   2.067   1_554  S
Co8         Cl50   2.437       .  S
C9           N47   1.346       .  A
C9          C637   1.475       .  S
N10          N17   1.322       .  A
N10          N40   1.323       .  A
N10         Co43   2.084       .  S
N11          N29   1.319       .  A
N11          N47   1.319       .  A
N12          C41   1.356       .  A
N12          N22   1.328       .  A
H13          C38   1.081       .  S
N14          N35   1.321       .  A
N15          N33   1.319       .  A
N15          N20   1.319       .  A
C16          N20   1.346       .  A
C16          C44   1.468       .  S
C16         C650   1.478       .  S
N17          C32   1.343       .  A
N17         Co39   2.095   1_554  S
C18          N46   1.337       .  A
C18          C21   1.461       .  S
C18          H52   1.080       .  S
C21          N42   1.354       .  A
C21         C670   1.486       .  S
N22          N28   1.319       .  A
N23          C49   1.343       .  A
N23          N25   1.322       .  A
N23         Co39   2.094       .  S
N24          C38   1.335       .  A
N25          N53   1.322       .  A
N25         Co43   2.078   1_556  S
H26          C49   1.081       .  S
H27          C44   1.081       .  S
N29         Co43   2.079       .  S
N30          N42   1.325       .  A
N30          N46   1.321       .  A
N30         Co39   2.098       .  S
C31          N35   1.349       .  A
C31          C45   1.463       .  S
C31         C700   1.476       .  S
C32          C51   1.467       .  S
C32          H36   1.081       .  S
N33          C44   1.345       .  A
N33         Co43   2.087   1_556  S
C37          N53   1.347       .  A
C37          C49   1.466       .  S
C37         C677   1.482       .  S
Co39        Cl50   2.459   1_556  S
N40          C51   1.349       .  A
C41         C657   1.482       .  S
Co43        Cl50   2.452       .  S
C51         C687   1.486       .  S
N54          C58   1.362       .  A
N54          C55   1.362       .  A
N54         C617   1.448       .  S
C55         C690   1.471       .  S
C55          C56   1.380       .  A
C56          H59   1.083       .  S
C56          C57   1.365       .  A
C57          H60   1.083       .  S
C57          C58   1.381       .  A
C58         C607   1.472       .  S
N61          C65   1.354       .  A
N61          C62   1.356       .  A
N61         C600   1.442       .  S
C62         C697   1.463       .  S
C62          C63   1.381       .  A
C63          H66   1.082       .  S
C63          C64   1.367       .  A
C64          H67   1.082       .  S
C64          C65   1.380       .  A
C65         C590   1.463       .  S
N68          C72   1.361       .  A
N68          C69   1.359       .  A
N68         C577   1.449       .  S
C69         C567   1.464       .  S
C69          C70   1.379       .  A
C70          H73   1.083       .  S
C70          C71   1.365       .  A
C71          H74   1.082       .  S
C71          C72   1.380       .  A
C72         C680   1.469       .  S
N75          C79   1.359       .  A
N75          C76   1.357       .  A
N75         C557   1.446       .  S
C76         C547   1.464       .  S
C76          C77   1.380       .  A
C77          H80   1.083       .  S
C77          C78   1.366       .  A
C78          H81   1.082       .  S
C78          C79   1.381       .  A
C79         C660   1.469       .  S
N82          C87   1.357   1_655  A
N82          C86   1.358       .  A
N82         H114   1.037       .  S
N83          C90   1.355   1_554  A
N83          C91   1.356       .  A
N84          C89   1.357   1_655  A
N84          C88   1.357       .  A
N84         H115   1.035       .  S
N85          C92   1.357   1_554  A
N85          C93   1.358       .  A
C86          C94   1.387       .  A
C86         C102   1.424       .  A
C87         C103   1.424       .  A
C87          C95   1.388       .  A
C88          C96   1.387       .  A
C88         C105   1.424       .  A
C89         C104   1.425       .  A
C89          C97   1.388       .  A
C90         C102   1.420       .  A
C90          C98   1.387       .  A
C91         C105   1.421       .  A
C91          C99   1.387       .  A
C92         C100   1.386       .  A
C92         C103   1.424       .  A
C93         C101   1.387       .  A
C93         C104   1.425       .  A
C94         H106   1.082       .  S
C94          C95   1.377   1_655  A
C95         H107   1.082       .  S
C96         H108   1.082       .  S
C96          C97   1.379   1_655  A
C97         H109   1.082       .  S
C98         H110   1.082       .  S
C98          C99   1.374   1_556  A
C99         H111   1.082       .  S
C100        H112   1.082       .  S
C100        C101   1.373   1_556  A
C101        H113   1.082       .  S
C102        C560   1.499       .  S
C103        C580   1.503       .  S
C104        C620   1.505       .  S
C105        C597   1.497       .  S
C116        N134   1.348       .  A
C116        C153   1.467       .  S
C116        C610   1.483       .  S
N117        N134   1.323       .  A
N117        N139   1.320       .  A
N117       Co154   2.077   1_455  S
C118        N143   1.338       .  A
C118        C156   1.459       .  S
C118        H163   1.081       .  S
H119        C160   1.081       .  S
C120        N144   1.340       .  A
C120        C124   1.462       .  S
C120        H149   1.081       .  S
Co121       N139   2.093   1_655  S
Co121       N129   2.077   1_655  S
Co121       N161   2.070       .  S
Co121       N137   2.090       .  S
Co121      Cl165   2.455       .  S
N122        C160   1.336       .  A
N122        N129   1.320       .  A
N122       Co123   2.073   1_455  S
Co123       N126   2.070   1_655  S
Co123       N143   2.074       .  S
Co123       N130   2.078       .  S
Co123      Cl165   2.440       .  S
C124        N162   1.347       .  A
C124        C570   1.477       .  S
N125        N132   1.320       .  A
N125        N155   1.323       .  A
N125       Co158   2.082   1_455  S
N126        N144   1.320       .  A
N126        N162   1.321       .  A
N127        C156   1.352       .  A
N127        N137   1.325       .  A
H128        C153   1.081       .  S
N129        N150   1.322       .  A
N130        N148   1.320       .  A
N130        N135   1.323       .  A
C131        N135   1.349       .  A
C131        C159   1.459       .  S
C131        C550   1.475       .  S
N132        C147   1.337       .  A
N132       Co154   2.072   1_455  S
C133        N161   1.338       .  A
C133        C136   1.458       .  S
C133        H167   1.081       .  S
C136        N157   1.351       .  A
C136        C587   1.476       .  S
N137        N143   1.320       .  A
N138        C164   1.342       .  A
N138        N140   1.320       .  A
N138       Co154   2.085       .  S
N139        C153   1.344       .  A
N140        N168   1.322       .  A
N140       Co158   2.073       .  S
H141        C164   1.080       .  S
H142        C159   1.081       .  S
N144       Co158   2.078   1_455  S
N145        N157   1.323       .  A
N145        N161   1.321       .  A
N145       Co154   2.088       .  S
C146        N150   1.350       .  A
C146        C160   1.459       .  S
C146        C537   1.474       .  S
C147        C166   1.460       .  S
C147        H151   1.080       .  S
N148        C159   1.338       .  A
N148       Co158   2.075       .  S
C152        N168   1.348       .  A
C152        C164   1.467       .  S
C152        C507   1.482       .  S
Co154      Cl165   2.443       .  S
N155        C166   1.351       .  A
C156        C517   1.480       .  S
Co158      Cl165   2.448       .  S
C166        C527   1.477       .  S
N169        C173   1.358       .  A
N169        C170   1.358       .  A
N169        C497   1.448       .  S
C170        C490   1.462       .  S
C170        C171   1.380       .  A
C171        H174   1.083       .  S
C171        C172   1.363       .  A
C172        H175   1.083       .  S
C172        C173   1.380       .  A
C173        C640   1.461       .  S
N176        C180   1.357       .  A
N176        C177   1.358       .  A
N176        C477   1.445       .  S
C177        C627   1.466       .  S
C177        C178   1.380       .  A
C178        H181   1.082       .  S
C178        C179   1.365       .  A
C179        H182   1.083       .  S
C179        C180   1.380       .  A
C180        C467   1.464       .  S
N183        C187   1.362       .  A
N183        C184   1.364       .  A
N183        C457   1.452       .  S
C184        C667   1.469       .  S
C184        C185   1.379       .  A
C185        H188   1.083       .  S
C185        C186   1.362       .  A
C186        H189   1.083       .  S
C186        C187   1.380       .  A
C187        C447   1.471       .  S
N190        C194   1.359       .  A
N190        C191   1.361       .  A
N190        C437   1.450       .  S
C191        C427   1.467       .  S
C191        C192   1.381       .  A
C192        H195   1.083       .  S
C192        C193   1.364       .  A
C193        H196   1.083       .  S
C193        C194   1.379       .  A
C194        C647   1.468       .  S
N197        C202   1.355       .  A
N197        C201   1.356   1_554  A
N197        H229   1.035       .  S
N198        C205   1.356   1_565  A
N198        C206   1.356       .  A
N199        C204   1.360       .  A
N199        C203   1.358   1_554  A
N199        H230   1.034       .  S
N200        C207   1.355   1_565  A
N200        C208   1.355       .  A
C201        C209   1.387       .  A
C201        C217   1.420       .  A
C202        C218   1.419       .  A
C202        C210   1.387       .  A
C203        C211   1.388       .  A
C203        C220   1.426       .  A
C204        C219   1.425       .  A
C204        C212   1.387       .  A
C205        C217   1.421       .  A
C205        C213   1.386       .  A
C206        C220   1.421       .  A
C206        C214   1.387       .  A
C207        C215   1.386       .  A
C207        C218   1.419       .  A
C208        C216   1.387       .  A
C208        C219   1.421       .  A
C209        H221   1.082       .  S
C209        C210   1.377   1_556  A
C210        H222   1.083       .  S
C211        H223   1.082       .  S
C211        C212   1.379   1_556  A
C212        H224   1.082       .  S
C213        H225   1.082       .  S
C213        C214   1.375   1_545  A
C214        H226   1.082       .  S
C215        H227   1.082       .  S
C215        C216   1.374   1_545  A
C216        H228   1.082       .  S
C217        C460   1.501       .  S
C218        C480   1.495       .  S
C219        C500   1.504       .  S
C220        C440   1.503       .  S
N231        C235   1.357       .  A
N231        C232   1.358       .  A
N231        C420   1.448       .  S
C232        C540   1.460       .  S
C232        C233   1.380       .  A
C233        H236   1.083       .  S
C233        C234   1.363       .  A
C234        H237   1.083       .  S
C234        C235   1.380       .  A
C235        C410   1.461       .  S
N238        C242   1.358       .  A
N238        C239   1.357       .  A
N238        C397   1.447       .  S
C239        C387   1.461       .  S
C239        C240   1.380       .  A
C240        H243   1.083       .  S
C240        C241   1.364       .  A
C241        H244   1.082       .  S
C241        C242   1.380       .  A
C242        C510   1.464       .  S
N245        C249   1.359       .  A
N245        C246   1.359       .  A
N245        C377   1.448       .  S
C246        C530   1.466       .  S
C246        C247   1.380       .  A
C247        H250   1.083       .  S
C247        C248   1.364       .  A
C248        H251   1.083       .  S
C248        C249   1.380       .  A
C249        C370   1.464       .  S
N252        C256   1.359       .  A
N252        C253   1.359       .  A
N252        C357   1.445       .  S
C253        C347   1.469       .  S
C253        C254   1.380       .  A
C254        H257   1.082       .  S
C254        C255   1.365       .  A
C255        H258   1.082       .  S
C255        C256   1.380       .  A
C256        C520   1.467       .  S
N259        C264   1.356       .  A
N259        C263   1.356   1_565  A
N259        H291   1.037       .  S
N260        C267   1.356       .  A
N260        C268   1.356   1_655  A
N261        C266   1.357       .  A
N261        C265   1.356   1_565  A
N261        H292   1.037       .  S
N262        C269   1.355       .  A
N262        C270   1.355   1_655  A
C263        C271   1.388       .  A
C263        C279   1.422       .  A
C264        C280   1.420       .  A
C264        C272   1.387       .  A
C265        C273   1.388       .  A
C265        C282   1.423       .  A
C266        C281   1.423       .  A
C266        C274   1.387       .  A
C267        C279   1.422       .  A
C267        C275   1.386       .  A
C268        C282   1.423       .  A
C268        C276   1.387       .  A
C269        C277   1.386       .  A
C269        C280   1.418       .  A
C270        C278   1.386       .  A
C270        C281   1.419       .  A
C271        H283   1.082       .  S
C271        C272   1.377   1_545  A
C272        H284   1.082       .  S
C273        H285   1.082       .  S
C273        C274   1.378   1_545  A
C274        H286   1.082       .  S
C275        H287   1.082       .  S
C275        C276   1.374   1_655  A
C276        H288   1.082       .  S
C277        H289   1.082       .  S
C277        C278   1.373   1_655  A
C278        H290   1.082       .  S
C279        C400   1.501       .  S
C280        C360   1.496       .  S
C281        C417   1.499       .  S
C282        C380   1.501       .  S
C293        N311   1.345       .  A
C293        C330   1.465       .  S
C293        C487   1.476       .  S
N294        N311   1.319       .  A
N294        N316   1.318       .  A
N294       Co331   2.063       .  S
C295        N320   1.338       .  A
C295        C333   1.462       .  S
C295        H340   1.081       .  S
H296        C337   1.081       .  S
C297        N321   1.338       .  A
C297        C301   1.463       .  S
C297        H326   1.081       .  S
Co298       N316   2.080       .  S
Co298       N306   2.073       .  S
Co298       N338   2.075   1_565  S
Co298       N314   2.077   1_565  S
Co298      Cl342   2.449       .  S
N299        C337   1.344       .  A
N299        N306   1.320       .  A
N299       Co300   2.091       .  S
Co300       N303   2.074       .  S
Co300       N320   2.075   1_565  S
Co300       N307   2.093   1_565  S
Co300      Cl342   2.447       .  S
C301        N339   1.348       .  A
C301        C430   1.477       .  S
N302        N309   1.318       .  A
N302        N332   1.325       .  A
N302       Co335   2.086       .  S
N303        N321   1.322       .  A
N303        N339   1.323       .  A
N304        C333   1.348       .  A
N304        N314   1.322       .  A
H305        C330   1.081       .  S
N306        N327   1.320       .  A
N307        N325   1.321       .  A
N307        N312   1.325       .  A
C308        N312   1.352       .  A
C308        C336   1.458       .  S
C308        C450   1.478       .  S
N309        C324   1.332       .  A
N309       Co331   2.057       .  S
C310        N338   1.339       .  A
C310        C313   1.463       .  S
C310        H344   1.081       .  S
C313        N334   1.347       .  A
C313        C470   1.477       .  S
N314        N320   1.321       .  A
N315        C341   1.334       .  A
N315        N317   1.319       .  A
N315       Co331   2.066   1_545  S
N316        C330   1.342       .  A
N317        N345   1.326       .  A
N317       Co335   2.087   1_545  S
H318        C341   1.081       .  S
H319        C336   1.081       .  S
N321       Co335   2.086       .  S
N322        N334   1.321       .  A
N322        N338   1.318       .  A
N322       Co331   2.068   1_545  S
C323        N327   1.347       .  A
C323        C337   1.467       .  S
C323        C350   1.481       .  S
C324        C343   1.455       .  S
C324        H328   1.081       .  S
N325        C336   1.338       .  A
N325       Co335   2.073   1_545  S
C329        N345   1.353       .  A
C329        C341   1.457       .  S
C329        C367   1.477       .  S
Co331      Cl342   2.429       .  S
N332        C343   1.354       .  A
C333        C390   1.476       .  S
Co335      Cl342   2.456       .  S
C343        C407   1.477       .  S
C346        H353   1.084       .  S
C346        C347   1.403       .  A
C346        C351   1.403       .  A
C347        C348   1.401       .  A
C348        C349   1.392       .  A
C348        F355   1.358       .  S
C349        H354   1.083       .  S
C349        C350   1.405       .  A
C350        C351   1.410       .  A
C351        F352   1.356       .  S
C356        H363   1.082       .  S
C356        C357   1.405       .  A
C356        C361   1.406       .  A
C357        C358   1.407       .  A
C358        C359   1.400       .  A
C358        F365   1.356       .  S
C359        H364   1.083       .  S
C359        C360   1.402       .  A
C360        C361   1.408       .  A
C361        F362   1.357       .  S
C366        H373   1.082       .  S
C366        C367   1.404       .  A
C366        C371   1.390       .  A
C367        C368   1.410       .  A
C368        C369   1.402       .  A
C368        F375   1.357       .  S
C369        H374   1.083       .  S
C369        C370   1.402       .  A
C370        C371   1.401       .  A
C371        F372   1.358       .  S
C376        H383   1.083       .  S
C376        C377   1.404       .  A
C376        C381   1.402       .  A
C377        C378   1.408       .  A
C378        C379   1.406       .  A
C378        F385   1.356       .  S
C379        H384   1.083       .  S
C379        C380   1.407       .  A
C380        C381   1.407       .  A
C381        F382   1.357       .  S
C386        H393   1.084       .  S
C386        C387   1.401       .  A
C386        C391   1.395       .  A
C387        C388   1.400       .  A
C388        C389   1.395       .  A
C388        F395   1.358       .  S
C389        H394   1.081       .  S
C389        C390   1.406       .  A
C390        C391   1.408       .  A
C391        F392   1.358       .  S
C396        H403   1.082       .  S
C396        C397   1.405       .  A
C396        C401   1.405       .  A
C397        C398   1.408       .  A
C398        C399   1.402       .  A
C398        F405   1.356       .  S
C399        H404   1.083       .  S
C399        C400   1.405       .  A
C400        C401   1.409       .  A
C401        F402   1.357       .  S
C406        H413   1.081       .  S
C406        C407   1.407       .  A
C406        C411   1.392       .  A
C407        C408   1.408       .  A
C408        C409   1.398       .  A
C408        F415   1.357       .  S
C409        H414   1.084       .  S
C409        C410   1.401       .  A
C410        C411   1.399       .  A
C411        F412   1.358       .  S
C416        H423   1.083       .  S
C416        C417   1.407       .  A
C416        C421   1.405       .  A
C417        C418   1.405       .  A
C418        C419   1.401       .  A
C418        F425   1.357       .  S
C419        H424   1.083       .  S
C419        C420   1.406       .  A
C420        C421   1.408       .  A
C421        F422   1.355       .  S
C426        H433   1.084       .  S
C426        C427   1.402       .  A
C426        C431   1.391       .  A
C427        C428   1.401       .  A
C428        C429   1.402       .  A
C428        F435   1.357       .  S
C429        H434   1.083       .  S
C429        C430   1.410       .  A
C430        C431   1.403       .  A
C431        F432   1.356       .  S
C436        H443   1.083       .  S
C436        C437   1.406       .  A
C436        C441   1.400       .  A
C437        C438   1.409       .  A
C438        C439   1.408       .  A
C438        F445   1.356       .  S
C439        H444   1.083       .  S
C439        C440   1.409       .  A
C440        C441   1.406       .  A
C441        F442   1.357       .  S
C446        H453   1.084       .  S
C446        C447   1.403       .  A
C446        C451   1.395       .  A
C447        C448   1.402       .  A
C448        C449   1.401       .  A
C448        F455   1.357       .  S
C449        H454   1.083       .  S
C449        C450   1.407       .  A
C450        C451   1.406       .  A
C451        F452   1.357       .  S
C456        H463   1.082       .  S
C456        C457   1.407       .  A
C456        C461   1.404       .  A
C457        C458   1.410       .  A
C458        C459   1.405       .  A
C458        F465   1.356       .  S
C459        H464   1.083       .  S
C459        C460   1.405       .  A
C460        C461   1.407       .  A
C461        F462   1.357       .  S
C466        H473   1.084       .  S
C466        C467   1.400       .  A
C466        C471   1.394       .  A
C467        C468   1.402       .  A
C468        C469   1.397       .  A
C468        F475   1.358       .  S
C469        H474   1.082       .  S
C469        C470   1.406       .  A
C470        C471   1.408       .  A
C471        F472   1.358       .  S
C476        H483   1.083       .  S
C476        C477   1.405       .  A
C476        C481   1.402       .  A
C477        C478   1.407       .  A
C478        C479   1.404       .  A
C478        F485   1.356       .  S
C479        H484   1.083       .  S
C479        C480   1.405       .  A
C480        C481   1.406       .  A
C481        F482   1.357       .  S
C486        H493   1.082       .  S
C486        C487   1.405       .  A
C486        C491   1.398       .  A
C487        C488   1.410       .  A
C488        C489   1.392       .  A
C488        F495   1.358       .  S
C489        H494   1.084       .  S
C489        C490   1.398       .  A
C490        C491   1.403       .  A
C491        F492   1.357       .  S
C496        H503   1.083       .  S
C496        C497   1.404       .  A
C496        C501   1.402       .  A
C497        C498   1.408       .  A
C498        C499   1.408       .  A
C498        F505   1.356       .  S
C499        H504   1.083       .  S
C499        C500   1.408       .  A
C500        C501   1.408       .  A
C501        F502   1.357       .  S
C506        H513   1.083       .  S
C506        C507   1.407       .  A
C506        C511   1.395       .  A
C507        C508   1.411       .  A
C508        C509   1.398       .  A
C508        F515   1.355       .  S
C509        H514   1.084       .  S
C509        C510   1.399       .  A
C510        C511   1.401       .  A
C511        F512   1.358       .  S
C516        H523   1.082       .  S
C516        C517   1.404       .  A
C516        C521   1.394       .  A
C517        C518   1.410       .  A
C518        C519   1.401       .  A
C518        F525   1.357       .  S
C519        H524   1.083       .  S
C519        C520   1.401       .  A
C520        C521   1.403       .  A
C521        F522   1.358       .  S
C526        H533   1.083       .  S
C526        C527   1.402       .  A
C526        C531   1.393       .  A
C527        C528   1.412       .  A
C528        C529   1.399       .  A
C528        F535   1.356       .  S
C529        H534   1.084       .  S
C529        C530   1.399       .  A
C530        C531   1.403       .  A
C531        F532   1.358       .  S
C536        H543   1.083       .  S
C536        C537   1.407       .  A
C536        C541   1.397       .  A
C537        C538   1.406       .  A
C538        C539   1.393       .  A
C538        F545   1.356       .  S
C539        H544   1.084       .  S
C539        C540   1.401       .  A
C540        C541   1.400       .  A
C541        F542   1.357       .  S
C546        H553   1.083       .  S
C546        C547   1.400       .  A
C546        C551   1.399       .  A
C547        C548   1.403       .  A
C548        C549   1.393       .  A
C548        F555   1.358       .  S
C549        H554   1.082       .  S
C549        C550   1.402       .  A
C550        C551   1.410       .  A
C551        F552   1.357       .  S
C556        H563   1.082       .  S
C556        C557   1.405       .  A
C556        C561   1.405       .  A
C557        C558   1.407       .  A
C558        C559   1.401       .  A
C558        F565   1.357       .  S
C559        H564   1.083       .  S
C559        C560   1.405       .  A
C560        C561   1.408       .  A
C561        F562   1.357       .  S
C566        H573   1.084       .  S
C566        C567   1.400       .  A
C566        C571   1.397       .  A
C567        C568   1.403       .  A
C568        C569   1.395       .  A
C568        F575   1.357       .  S
C569        H574   1.082       .  S
C569        C570   1.403       .  A
C570        C571   1.410       .  A
C571        F572   1.358       .  S
C576        H583   1.081       .  S
C576        C577   1.407       .  A
C576        C581   1.407       .  A
C577        C578   1.407       .  A
C578        C579   1.401       .  A
C578        F585   1.356       .  S
C579        H584   1.083       .  S
C579        C580   1.405       .  A
C580        C581   1.410       .  A
C581        F582   1.357       .  S
C586        H593   1.083       .  S
C586        C587   1.406       .  A
C586        C591   1.396       .  A
C587        C588   1.408       .  A
C588        C589   1.396       .  A
C588        F595   1.356       .  S
C589        H594   1.084       .  S
C589        C590   1.402       .  A
C590        C591   1.400       .  A
C591        F592   1.356       .  S
C596        H603   1.083       .  S
C596        C597   1.403       .  A
C596        C601   1.401       .  A
C597        C598   1.409       .  A
C598        C599   1.407       .  A
C598        F605   1.357       .  S
C599        H604   1.082       .  S
C599        C600   1.404       .  A
C600        C601   1.404       .  A
C601        F602   1.356       .  S
C606        H613   1.084       .  S
C606        C607   1.403       .  A
C606        C611   1.397       .  A
C607        C608   1.402       .  A
C608        C609   1.402       .  A
C608        F615   1.357       .  S
C609        H614   1.082       .  S
C609        C610   1.407       .  A
C610        C611   1.408       .  A
C611        F612   1.358       .  S
C616        H623   1.082       .  S
C616        C617   1.405       .  A
C616        C621   1.405       .  A
C617        C618   1.408       .  A
C618        C619   1.406       .  A
C618        F625   1.357       .  S
C619        H624   1.083       .  S
C619        C620   1.407       .  A
C620        C621   1.409       .  A
C621        F622   1.357       .  S
C626        H633   1.083       .  S
C626        C627   1.401       .  A
C626        C631   1.402       .  A
C627        C628   1.401       .  A
C628        C629   1.392       .  A
C628        F635   1.358       .  S
C629        H634   1.082       .  S
C629        C630   1.405       .  A
C630        C631   1.409       .  A
C631        F632   1.357       .  S
C636        H643   1.082       .  S
C636        C637   1.407       .  A
C636        C641   1.400       .  A
C637        C638   1.407       .  A
C638        C639   1.391       .  A
C638        F645   1.358       .  S
C639        H644   1.084       .  S
C639        C640   1.399       .  A
C640        C641   1.402       .  A
C641        F642   1.358       .  S
C646        H653   1.083       .  S
C646        C647   1.403       .  A
C646        C651   1.402       .  A
C647        C648   1.400       .  A
C648        C649   1.392       .  A
C648        F655   1.357       .  S
C649        H654   1.083       .  S
C649        C650   1.405       .  A
C650        C651   1.408       .  A
C651        F652   1.356       .  S
C656        H663   1.081       .  S
C656        C657   1.406       .  A
C656        C661   1.393       .  A
C657        C658   1.409       .  A
C658        C659   1.402       .  A
C658        F665   1.357       .  S
C659        H664   1.083       .  S
C659        C660   1.403       .  A
C660        C661   1.401       .  A
C661        F662   1.358       .  S
C666        H673   1.084       .  S
C666        C667   1.401       .  A
C666        C671   1.397       .  A
C667        C668   1.402       .  A
C668        C669   1.400       .  A
C668        F675   1.357       .  S
C669        H674   1.083       .  S
C669        C670   1.408       .  A
C670        C671   1.411       .  A
C671        F672   1.356       .  S
C676        H683   1.082       .  S
C676        C677   1.407       .  A
C676        C681   1.400       .  A
C677        C678   1.409       .  A
C678        C679   1.396       .  A
C678        F685   1.358       .  S
C679        H684   1.084       .  S
C679        C680   1.401       .  A
C680        C681   1.403       .  A
C681        F682   1.357       .  S
C686        H693   1.082       .  S
C686        C687   1.406       .  A
C686        C691   1.401       .  A
C687        C688   1.411       .  A
C688        C689   1.399       .  A
C688        F695   1.357       .  S
C689        H694   1.084       .  S
C689        C690   1.401       .  A
C690        C691   1.403       .  A
C691        F692   1.357       .  S
C696        H703   1.083       .  S
C696        C697   1.400       .  A
C696        C701   1.397       .  A
C697        C698   1.401       .  A
C698        C699   1.394       .  A
C698        F705   1.357       .  S
C699        H704   1.083       .  S
C699        C700   1.404       .  A
C700        C701   1.410       .  A
C701        F702   1.356       .  S
