geometry optimzed in LAMMPS
_audit_creation_date              2020-11-30 
_audit_creation_method            'lammps2cif' 
_symmetry_space_group_name_H-M    'P1' 
_symmetry_Int_Tables_number       1 
_symmetry_cell_setting            triclinic 
loop_ 
_symmetry_equiv_pos_as_xyz 
  x,y,z 
_cell_length_a                    32.09868261 
_cell_length_b                    32.083900669309884 
_cell_length_c                    36.98779706146628 
_cell_angle_alpha                 89.95298658600987 
_cell_angle_beta                  89.95411303935529 
_cell_angle_gamma                 89.23006330001724 
loop_ 
_atom_site_label 
_atom_site_type_symbol 
_atom_site_fract_x 
_atom_site_fract_y 
_atom_site_fract_z 
_atom_site_charge 
C1          C  0.72826216  0.84200404  0.42883239     0.79300
N2          N  0.74113067  0.87283800  0.40492450    -0.79000
C3          C  0.71069207  0.89759412  0.38859868     0.81700
N4          N  0.67086796  0.89584814  0.40136489    -0.79000
C5          C  0.66375035  0.87546314  0.43231954     0.81800
N6          N  0.68665807  0.83992622  0.43658864    -0.80700
C7          C  0.73267875  0.85076810  0.59346230     0.79300
N8          N  0.69106012  0.84298042  0.59018287    -0.79000
C9          C  0.66531287  0.87688332  0.59052840     0.81700
N10         N  0.67186857  0.90319453  0.61799560    -0.79000
C11         C  0.71204409  0.91099217  0.62734690     0.81800
N12         N  0.74381179  0.88688074  0.61186109    -0.80700
C13         C  0.76948130  0.04719288  0.38579265     0.79300
N14         N  0.75739155  0.01771190  0.40922486    -0.79000
C15         C  0.75881296  0.02392363  0.44473375     0.81700
N16         N  0.77524913  0.05879594  0.45818952    -0.79000
C17         C  0.78966528  0.08853250  0.43580668     0.81800
N18         N  0.78484029  0.08426229  0.39884106    -0.80700
C19         C  0.77516468  0.05606844  0.63065563     0.79300
N20         N  0.76533956  0.02196971  0.61137673    -0.79000
C21         C  0.76327093  0.02307492  0.57535953     0.81700
N22         N  0.77745399  0.05651544  0.55718282    -0.79000
C23         C  0.79232323  0.08980386  0.57531786     0.81800
N24         N  0.78776329  0.09137131  0.61243961    -0.80700
O25         O  0.65048727  0.93487532  0.54983826    -0.75400
O26         O  0.69905245  0.00036497  0.47416023    -0.75400
O27         O  0.64830018  0.93165155  0.47573945    -0.75500
O28         O  0.70175853  0.00304293  0.54543655    -0.75500
O29         O  0.75424902  0.95701928  0.55076375    -0.75400
O30         O  0.71080718  0.90189872  0.47230829    -0.75400
O31         O  0.75965670  0.96584170  0.48100425    -0.75400
O32         O  0.70305321  0.89141923  0.53906977    -0.75500
Ni33       Ni  0.67202113  0.96924738  0.51134741     1.25400
Ni34       Ni  0.73361034  0.92746820  0.51099728     1.25400
C35         C  0.67038319  0.90095478  0.55670278     0.86800
C36         C  0.73813634  0.99543875  0.46771186     0.86700
C37         C  0.67310240  0.90408131  0.46233679     0.86800
C38         C  0.73819653  0.99261802  0.55707777     0.86900
C39         C  0.85234331  0.72045181  0.43173878     0.79300
N40         N  0.88257133  0.73335313  0.40716157    -0.79000
C41         C  0.90881567  0.70313140  0.39214978     0.81700
N42         N  0.90885521  0.66405793  0.40667748    -0.79000
C43         C  0.88883226  0.65785546  0.43793082     0.81800
N44         N  0.85231947  0.67930586  0.44137731    -0.80700
C45         C  0.85555069  0.72919283  0.59452330     0.79300
N46         N  0.85051632  0.68717048  0.59042412    -0.79000
C47         C  0.88574897  0.66346941  0.59253641     0.81700
N48         N  0.90913344  0.67125933  0.62162749    -0.79000
C49         C  0.91515381  0.71201176  0.63020343     0.81800
N50         N  0.89040505  0.74232725  0.61355724    -0.80700
C51         C  0.05843294  0.76501372  0.38799864     0.79300
N52         N  0.02829490  0.75552207  0.41168086    -0.79000
C53         C  0.03399343  0.75935718  0.44711929     0.81700
N54         N  0.06934712  0.77519196  0.46012067    -0.79000
C55         C  0.10004713  0.78675405  0.43749465     0.81800
N56         N  0.09611595  0.77943556  0.40074219    -0.80700
C57         C  0.06494196  0.78151513  0.63224953     0.79300
N58         N  0.03017740  0.77556907  0.61251242    -0.79000
C59         C  0.03261908  0.76973469  0.57675109     0.81700
N60         N  0.06809470  0.77863401  0.55890704    -0.79000
C61         C  0.10193383  0.79178850  0.57711660     0.81800
N62         N  0.10181282  0.78963781  0.61435403    -0.80700
O63         O  0.94708610  0.65203327  0.55461686    -0.75400
O64         O  0.01248701  0.70063534  0.47895235    -0.75400
O65         O  0.01362775  0.70614937  0.54997811    -0.75500
O66         O  0.94587585  0.64733157  0.48117324    -0.75500
O67         O  0.91293510  0.70819249  0.47609614    -0.75400
O68         O  0.96668072  0.75812740  0.55249124    -0.75400
O69         O  0.97511837  0.75997260  0.48250187    -0.75400
O70         O  0.90308944  0.70398887  0.54315316    -0.75500
Ni71       Ni  0.98166308  0.67386745  0.51640015     1.25400
Ni72       Ni  0.93784723  0.73417974  0.51370972     1.25400
C73         C  0.91234317  0.67090492  0.56040095     0.86800
C74         C  0.00589491  0.73902792  0.47063445     0.86700
C75         C  0.00247304  0.74313990  0.55973669     0.86800
C76         C  0.91699754  0.67015823  0.46732556     0.86900
C77         C  0.30531073  0.90646252  0.38530498     0.79300
N78         N  0.34026989  0.90734359  0.40577832    -0.79000
C79         C  0.34025598  0.89431138  0.44008617     0.81700
N80         N  0.30934360  0.86900234  0.45063646    -0.79000
C81         C  0.27318418  0.86770354  0.43195268     0.81800
N82         N  0.26980246  0.88900126  0.39951197    -0.80700
C83         C  0.30012409  0.91144819  0.62468607     0.79300
N84         N  0.26621374  0.89609964  0.60645409    -0.79000
C85         C  0.27331472  0.87157774  0.57633377     0.81700
N86         N  0.31263067  0.86914321  0.56247936    -0.79000
C87         C  0.34301337  0.89374893  0.57608443     0.81800
N88         N  0.33879648  0.90547890  0.61057641    -0.80700
C89         C  0.26642611  0.11324640  0.42660729     0.79300
N90         N  0.29963097  0.10467061  0.44795639    -0.79000
C91         C  0.33071730  0.07913127  0.43725569     0.81700
N92         N  0.33112048  0.06689465  0.40309285    -0.79000
C93         C  0.29818107  0.07203771  0.38061410     0.81800
N94         N  0.26381397  0.09485525  0.39259427    -0.80700
C95         C  0.26982306  0.12085446  0.56680481     0.79300
N96         N  0.30774289  0.11472034  0.55115714    -0.79000
C97         C  0.33739505  0.09099977  0.56738006     0.81700
N98         N  0.33356994  0.08511087  0.60280320    -0.79000
C99         C  0.29550499  0.08534913  0.61877975     0.81800
N100        N  0.26197937  0.10267723  0.60022530    -0.80700
O101        O  0.30655673  0.02765665  0.47333883    -0.75400
O102        O  0.31289942  0.94856907  0.54583792    -0.75400
O103        O  0.30975460  0.03204243  0.54239208    -0.75500
O104        O  0.31070087  0.94446863  0.47643481    -0.75500
O105        O  0.38012053  0.94533931  0.47199434    -0.74200
O106        O  0.37920174  0.03545494  0.54113990    -0.75400
O107        O  0.38238454  0.94663289  0.54386094    -0.75400
O108        O  0.37590435  0.03205698  0.46985382    -0.75500
Ni109      Ni  0.30790673  0.98805502  0.50967928     1.25400
Ni110      Ni  0.38245641  0.98989483  0.50686636     1.25400
C111        C  0.33915340  0.04524797  0.46172791     0.86800
C112        C  0.34745958  0.93122485  0.55399633     0.86700
C113        C  0.34338196  0.05105819  0.54935614     0.86800
C114        C  0.34491421  0.92907047  0.46460626     0.86900
C115        C  0.36606821  0.88129461  0.26087143     0.79300
N116        N  0.37807793  0.86734837  0.29415522    -0.79000
C117        C  0.41673576  0.85083053  0.29694072     0.81700
N118        N  0.42621897  0.82228523  0.27055746    -0.79000
C119        C  0.41727142  0.83370620  0.23557183     0.81800
N120        N  0.38853437  0.86651885  0.23105432    -0.80700
C121        C  0.63965061  0.89267584  0.27534446     0.79300
N122        N  0.62448414  0.87238106  0.30476265    -0.79000
C123        C  0.59300051  0.84576301  0.29929622     0.81700
N124        N  0.59660753  0.82201353  0.26917963    -0.79000
C125        C  0.60459611  0.84325976  0.23806569     0.81800
N126        N  0.62609030  0.88054053  0.24117913    -0.80700
C127        C  0.37416863  0.04996384  0.22544635     0.79300
N128        N  0.40179659  0.01769848  0.22296482    -0.79000
C129        C  0.44058637  0.02300212  0.23639022     0.81700
N130        N  0.45534570  0.06177204  0.24136200    -0.79000
C131        C  0.43219354  0.09520596  0.23098029     0.81800
N132        N  0.39038416  0.08948942  0.22465184    -0.80700
C133        C  0.59177559  0.06610519  0.21007636     0.79300
N134        N  0.57187349  0.03010492  0.21610405    -0.79000
C135        C  0.59200633  0.99750706  0.23102299     0.81700
N136        N  0.63280583  0.99964669  0.23769443    -0.79000
C137        C  0.65338527  0.03588227  0.23456410     0.81800
N138        N  0.63195723  0.07057712  0.22229617    -0.80700
O139        O  0.46453997  0.90618712  0.31980133    -0.75400
O140        O  0.55314173  0.97564073  0.28176667    -0.75400
O141        O  0.47032965  0.98429294  0.28443014    -0.75500
O142        O  0.54837612  0.90193184  0.31840682    -0.75500
O143        O  0.53241672  0.86698132  0.26870396    -0.75400
O144        O  0.47699617  0.96023963  0.22797717    -0.75400
O145        O  0.55546143  0.93626478  0.23196268    -0.75400
O146        O  0.45670374  0.89322903  0.26202489    -0.75500
Ni147      Ni  0.50901037  0.94369366  0.30382602     1.25400
Ni148      Ni  0.50538379  0.91275288  0.24601775     1.25400
C149        C  0.44768564  0.88514525  0.29434814     0.86800
C150        C  0.56736891  0.96737822  0.24984090     0.86700
C151        C  0.46372794  0.98753741  0.25021827     0.86800
C152        C  0.55388653  0.87059908  0.29761549     0.86900
C153        C  0.41929923  0.72959649  0.86765972     0.79300
N154        N  0.43191679  0.68889298  0.86380651    -0.79000
C155        C  0.43177838  0.66444703  0.89365699     0.81700
N156        N  0.39788843  0.66869774  0.91448836    -0.79000
C157        C  0.37998410  0.70726418  0.91858371     0.81800
N158        N  0.39339826  0.73963319  0.89665659    -0.80700
C159        C  0.60298895  0.75115888  0.85649185     0.79300
N160        N  0.62634214  0.76468856  0.88620677    -0.79000
C161        C  0.65041911  0.73482984  0.90463530     0.81700
N162        N  0.64354714  0.69403318  0.89737856    -0.79000
C163        C  0.60957547  0.68417054  0.87865358     0.81800
N164        N  0.60183392  0.70929918  0.85011722    -0.80700
C165        C  0.43790455  0.77373697  0.08643423     0.79300
N166        N  0.39658923  0.76214249  0.08551526    -0.79000
C167        C  0.38285861  0.74095892  0.05552848     0.81700
N168        N  0.40952562  0.73054948  0.02920232    -0.79000
C169        C  0.44915418  0.74112723  0.03074408     0.81800
N170        N  0.46363711  0.76302227  0.05887355    -0.80700
C171        C  0.59592186  0.78659779  0.08220023     0.79300
N172        N  0.63789236  0.79386627  0.07772704    -0.79000
C173        C  0.65515647  0.79195421  0.04343921     0.81700
N174        N  0.62943093  0.78595546  0.01515945    -0.79000
C175        C  0.59216959  0.76876019  0.02089135     0.81800
N176        N  0.57458101  0.77020328  0.05413830    -0.80700
O177        O  0.56830087  0.70458755  0.99732469    -0.75400
O178        O  0.48859567  0.64929050  0.93612066    -0.75400
O179        O  0.57223855  0.66147152  0.93185925    -0.75500
O180        O  0.48836393  0.69029209  0.00108929    -0.75500
O181        O  0.48345011  0.75459551  0.97766085    -0.75400
O182        O  0.55186776  0.71856493  0.90258357    -0.75400
O183        O  0.47501564  0.71349152  0.91663114    -0.75400
O184        O  0.56214647  0.76258442  0.96418485    -0.75500
Ni185      Ni  0.53019234  0.67351267  0.96766163     1.25400
Ni186      Ni  0.51788803  0.73911928  0.93905777     1.25400
C187        C  0.57420037  0.74386445  0.99252565     0.86800
C188        C  0.46795023  0.67472016  0.91603369     0.86700
C189        C  0.57459514  0.68579485  0.90455492     0.86800
C190        C  0.47528806  0.72812689  0.00207801     0.86900
C191        C  0.34025060  0.89648833  0.74204701     0.79300
N192        N  0.34693098  0.88631356  0.70678174    -0.79000
C193        C  0.38505239  0.87119267  0.69858446     0.81700
N194        N  0.39674250  0.83860079  0.71997491    -0.79000
C195        C  0.39274332  0.84462980  0.75650860     0.81800
N196        N  0.36637948  0.87739879  0.76767765    -0.80700
C197        C  0.61349752  0.91820568  0.71383375     0.79300
N198        N  0.59425423  0.90924772  0.68199730    -0.79000
C199        C  0.56356583  0.88118485  0.68204097     0.81700
N200        N  0.56873527  0.84946166  0.70576899    -0.79000
C201        C  0.57924476  0.86039945  0.74019245     0.81800
N202        N  0.60236814  0.89627382  0.74472369    -0.80700
C203        C  0.34646886  0.07022868  0.77905812     0.79300
N204        N  0.37243102  0.03727685  0.78548006    -0.79000
C205        C  0.41221296  0.04003163  0.77358053     0.81700
N206        N  0.42899335  0.07788475  0.76825517    -0.79000
C207        C  0.40648373  0.11282663  0.77521921     0.81800
N208        N  0.36407812  0.10925925  0.77935877    -0.80700
C209        C  0.56518653  0.09292774  0.78343870     0.79300
N210        N  0.54194827  0.06016060  0.77376191    -0.79000
C211        C  0.55967982  0.02695151  0.75772930     0.81700
N212        N  0.60087353  0.02540713  0.75255964    -0.79000
C213        C  0.62504003  0.05837059  0.76032469     0.81800
N214        N  0.60675961  0.09377516  0.77442218    -0.80700
O215        O  0.42712252  0.93207863  0.67877847    -0.75400
O216        O  0.51485289  0.00507071  0.71145626    -0.75400
O217        O  0.51155156  0.93461584  0.67095282    -0.75500
O218        O  0.43312787  0.00618004  0.71986046    -0.75500
O219        O  0.44653229  0.97498258  0.77272839    -0.75400
O220        O  0.50837442  0.89572643  0.72043001    -0.75400
O221        O  0.52612072  0.96390697  0.75941811    -0.75400
O222        O  0.43197635  0.90695014  0.73408223    -0.75500
Ni223      Ni  0.47090892  0.97105348  0.69286261     1.25400
Ni224      Ni  0.47836957  0.93397302  0.74815468     1.25400
C225        C  0.41673893  0.90499263  0.70256072     0.86800
C226        C  0.53346625  0.99656186  0.74140583     0.86700
C227        C  0.52400251  0.90326587  0.68948551     0.86800
C228        C  0.43102441  0.00502625  0.75465241     0.86900
C229        C  0.42345823  0.28990634  0.93609506     0.79300
N230        N  0.46054694  0.27881162  0.95077104    -0.79000
C231        C  0.49213321  0.26570197  0.92944023     0.81700
N232        N  0.48744692  0.26629531  0.89364784    -0.79000
C233        C  0.44936875  0.27102444  0.87878271     0.81800
N234        N  0.41629867  0.28232379  0.90025935    -0.80700
C235        C  0.65631790  0.22988983  0.90719823     0.79300
N236        N  0.61922002  0.24013960  0.88945085    -0.79000
C237        C  0.59916538  0.20896935  0.87025634     0.81700
N238        N  0.61111954  0.16866908  0.87659942    -0.79000
C239        C  0.63659776  0.16156550  0.90483669     0.81800
N240        N  0.66827122  0.18891180  0.90746491    -0.80700
C241        C  0.41555384  0.26498130  0.06791308     0.79300
N242        N  0.44572199  0.25472533  0.04367583    -0.79000
C243        C  0.48271245  0.23962930  0.05522081     0.81700
N244        N  0.49006192  0.23528299  0.09031546    -0.79000
C245        C  0.45946752  0.24010700  0.11468247     0.81800
N246        N  0.42114438  0.25519864  0.10383515    -0.80700
C247        C  0.66973371  0.19988204  0.06942476     0.79300
N248        N  0.63890726  0.20692292  0.09554253    -0.79000
C249        C  0.61581363  0.17350283  0.10798911     0.81700
N250        N  0.61982869  0.13643357  0.09025462    -0.79000
C251        C  0.63759750  0.13652513  0.05741441     0.81800
N252        N  0.67210929  0.16081261  0.05457013    -0.80700
O253        O  0.50974086  0.19862366  0.95104769    -0.75400
O254        O  0.57843858  0.13028968  0.01457969    -0.75400
O255        O  0.50873317  0.18360577  0.02087323    -0.75500
O256        O  0.57640843  0.14455470  0.94188287    -0.75500
O257        O  0.62108381  0.19146196  0.96086962    -0.75400
O258        O  0.54333113  0.24369270  0.02173906    -0.75400
O259        O  0.60606061  0.19097142  0.02797190    -0.75400
O260        O  0.55750655  0.24857626  0.95279319    -0.75500
Ni261      Ni  0.54138413  0.16141821  0.98178894     1.25400
Ni262      Ni  0.58368054  0.22028784  0.99092677     1.25400
C263        C  0.52169249  0.23600674  0.94411643     0.86800
C264        C  0.60583123  0.15181638  0.03130721     0.86700
C265        C  0.51257616  0.22167059  0.03102334     0.86800
C266        C  0.61128716  0.16294768  0.93864917     0.86900
C267        C  0.29306858  0.41964668  0.93710427     0.79300
N268        N  0.28730549  0.41390560  0.90072842    -0.79000
C269        C  0.27540992  0.44758172  0.88008008     0.81700
N270        N  0.26800645  0.48455180  0.89611695    -0.79000
C271        C  0.26607735  0.48746770  0.93193623     0.81800
N272        N  0.27971695  0.45553228  0.95264485    -0.80700
C273        C  0.23209484  0.65187908  0.91069921     0.79300
N274        N  0.19116683  0.66359414  0.91241062    -0.79000
C275        C  0.16378223  0.63195073  0.91029919     0.81700
N276        N  0.17015411  0.60606017  0.88217468    -0.79000
C277        C  0.21027061  0.59510261  0.87396105     0.81800
N278        N  0.24204549  0.61545625  0.89193422    -0.80700
C279        C  0.27125288  0.40945414  0.07056867     0.79300
N280        N  0.25754886  0.43827793  0.04633294    -0.79000
C281        C  0.24344814  0.47567193  0.05788744     0.81700
N282        N  0.24374408  0.48484145  0.09292506    -0.79000
C283        C  0.25199815  0.45548636  0.11786388     0.81800
N284        N  0.26630670  0.41691160  0.10696652    -0.80700
C285        C  0.20674787  0.66484212  0.07333267     0.79300
N286        N  0.16699971  0.66618408  0.05986831    -0.79000
C287        C  0.14331030  0.63143382  0.06427002     0.81700
N288        N  0.14575488  0.61373575  0.09713734    -0.79000
C289        C  0.18380656  0.61092598  0.11338669     0.81800
N290        N  0.21578303  0.63470903  0.09949968    -0.80700
O291        O  0.24985775  0.55248063  0.95556591    -0.75400
O292        O  0.19606782  0.59951122  0.03327831    -0.75400
O293        O  0.24719886  0.53622701  0.02435682    -0.75500
O294        O  0.19452086  0.61648288  0.96599450    -0.75500
O295        O  0.14649493  0.57248589  0.94767026    -0.75400
O296        O  0.18665341  0.50244704  0.02464614    -0.75400
O297        O  0.13448710  0.57325856  0.02077686    -0.75400
O298        O  0.19957323  0.50499864  0.95453424    -0.75500
Ni299      Ni  0.22353888  0.57784240  0.99489504     1.25400
Ni300      Ni  0.16386370  0.53641764  0.98662698     1.25400
C301        C  0.23676916  0.51687255  0.94694001     0.86800
C302        C  0.15706344  0.59977586  0.03755232     0.86700
C303        C  0.22503509  0.50566136  0.03397379     0.86800
C304        C  0.16543193  0.60704277  0.94417691     0.86900
C305        C  0.91249556  0.33648035  0.73949877     0.79300
N306        N  0.90183780  0.34229465  0.70422075    -0.79000
C307        C  0.88570571  0.37976608  0.69518295     0.81700
N308        N  0.85406408  0.39241972  0.71721675    -0.79000
C309        C  0.86074017  0.38900897  0.75369538     0.81800
N310        N  0.89373238  0.36303649  0.76491729    -0.80700
C311        C  0.92793570  0.60987829  0.71024686     0.79300
N312        N  0.91825491  0.59094402  0.67840357    -0.79000
C313        C  0.89033356  0.56000206  0.67842127     0.81700
N314        N  0.85980228  0.56359975  0.70341315    -0.79000
C315        C  0.87189694  0.57357610  0.73763126     0.81800
N316        N  0.90728070  0.59761829  0.74152827    -0.80700
C317        C  0.08705593  0.34625757  0.76988428     0.79300
N318        N  0.12664799  0.36241243  0.76835797    -0.79000
C319        C  0.13183703  0.40419505  0.76119190     0.81700
N320        N  0.09783037  0.42647689  0.75054640    -0.79000
C321        C  0.05936289  0.41146649  0.75722117     0.81800
N322        N  0.05520094  0.37400754  0.77343827    -0.80700
C323        C  0.10497917  0.56230559  0.77260809     0.79300
N324        N  0.07365957  0.53881609  0.76010433    -0.79000
C325        C  0.04101139  0.55682415  0.74347328     0.81700
N326        N  0.03797669  0.59814345  0.74129120    -0.79000
C327        C  0.06967348  0.62259991  0.75147647     0.81800
N328        N  0.10494761  0.60455216  0.76601153    -0.80700
O329        O  0.94273214  0.42362335  0.67066774    -0.75400
O330        O  0.01654523  0.51312508  0.69745705    -0.75400
O331        O  0.02079172  0.43172653  0.70546472    -0.75500
O332        O  0.94250324  0.50854451  0.66258409    -0.75500
O333        O  0.90759986  0.50315749  0.71415510    -0.75400
O334        O  0.99475931  0.44553093  0.76031687    -0.75400
O335        O  0.97838671  0.52407039  0.74731297    -0.75400
O336        O  0.92395518  0.42676404  0.72806334    -0.75500
Ni337      Ni  0.98190968  0.46851865  0.68139467     1.25400
Ni338      Ni  0.94986992  0.47497133  0.73904986     1.25400
C339        C  0.91912861  0.41180138  0.69669630     0.86800
C340        C  0.00982231  0.53145870  0.72782743     0.86700
C341        C  0.02328343  0.43047242  0.74021139     0.86800
C342        C  0.91265784  0.52008081  0.68328995     0.86900
C343        C  0.74010538  0.41489921  0.86610894     0.79300
N344        N  0.69991435  0.42914691  0.86253788    -0.79000
C345        C  0.67530109  0.42896846  0.89228663     0.81700
N346        N  0.67831330  0.39450814  0.91253230    -0.79000
C347        C  0.71627435  0.37542901  0.91657999     0.81800
N348        N  0.74916489  0.38813170  0.89481742    -0.80700
C349        C  0.76198939  0.59654790  0.85446345     0.79300
N350        N  0.77595786  0.61963250  0.88424231    -0.79000
C351        C  0.74662419  0.64433886  0.90272332     0.81700
N352        N  0.70578200  0.63871756  0.89500297    -0.79000
C353        C  0.69543865  0.60412939  0.87730933     0.81800
N354        N  0.72003005  0.59544422  0.84858672    -0.80700
C355        C  0.78484347  0.43052462  0.08528512     0.79300
N356        N  0.77543819  0.45662079  0.05764481    -0.79000
C357        C  0.75348922  0.44300412  0.02922331     0.81700
N358        N  0.74145945  0.40375533  0.02743227    -0.79000
C359        C  0.75047760  0.37658522  0.05377413     0.81800
N360        N  0.77164243  0.38959530  0.08413001    -0.80700
C361        C  0.79798129  0.58941071  0.08258059     0.79300
N362        N  0.78199835  0.56848610  0.05412630    -0.79000
C363        C  0.78248815  0.58595262  0.02079869     0.81700
N364        N  0.80131148  0.62261094  0.01550369    -0.79000
C365        C  0.80550622  0.64858999  0.04392033     0.81800
N366        N  0.80634817  0.63121031  0.07823294    -0.80700
O367        O  0.77544051  0.55744254  0.96339802    -0.75400
O368        O  0.72544072  0.47036109  0.91614865    -0.75400
O369        O  0.73046009  0.54712576  0.90206709    -0.75500
O370        O  0.76733726  0.47860659  0.97679322    -0.75500
O371        O  0.70311655  0.48351640  0.00033491    -0.75400
O372        O  0.67406295  0.56824736  0.93186141    -0.75400
O373        O  0.66145767  0.48499930  0.93567575    -0.75400
O374        O  0.71793102  0.56345410  0.99712344    -0.75500
Ni375      Ni  0.75151163  0.51320126  0.93838709     1.25400
Ni376      Ni  0.68629127  0.52591708  0.96740110     1.25400
C377        C  0.75719311  0.56909341  0.99210759     0.86800
C378        C  0.68649635  0.46420332  0.91535946     0.86700
C379        C  0.69771551  0.56989331  0.90407911     0.86800
C380        C  0.74083194  0.47005970  0.00106022     0.86900
C381        C  0.89746672  0.35904189  0.26050405     0.79300
N382        N  0.88176693  0.37030396  0.29337083    -0.79000
C383        C  0.86491632  0.40882413  0.29603195     0.81700
N384        N  0.83736993  0.41839115  0.26899738    -0.79000
C385        C  0.85003979  0.40979296  0.23432321     0.81800
N386        N  0.88357749  0.38170603  0.23041955    -0.80700
C387        C  0.90493460  0.63284539  0.27530344     0.79300
N388        N  0.89354771  0.61847877  0.24114158    -0.79000
C389        C  0.85678777  0.59608719  0.23794641     0.81700
N390        N  0.83541636  0.58798709  0.26897852    -0.79000
C391        C  0.85869151  0.58548283  0.29944323     0.81800
N392        N  0.88479274  0.61744666  0.30469696    -0.80700
C393        C  0.07056593  0.37108978  0.23631898     0.79300
N394        N  0.03836557  0.39812981  0.23153494    -0.79000
C395        C  0.04201465  0.43710169  0.24471300     0.81700
N396        N  0.08013580  0.45277026  0.25146141    -0.79000
C397        C  0.11462299  0.43005265  0.24282302     0.81800
N398        N  0.10992759  0.38773456  0.23811280    -0.80700
C399        C  0.08384250  0.58753602  0.21958600     0.79300
N400        N  0.08498711  0.62963164  0.22636589    -0.79000
C401        C  0.04876915  0.65004947  0.23650901     0.81700
N402        N  0.01373189  0.62749991  0.24053859    -0.79000
C403        C  0.01538465  0.58575795  0.24005580     0.81800
N404        N  0.04980508  0.56594725  0.22852971    -0.80700
O405        O  0.91835834  0.45672635  0.32153001    -0.75400
O406        O  0.98997336  0.54649999  0.28930486    -0.75400
O407        O  0.91361083  0.54089367  0.32137734    -0.75500
O408        O  0.99893655  0.46409435  0.29104178    -0.75500
O409        O  0.97888877  0.47167425  0.23350378    -0.75400
O410        O  0.88251047  0.52553618  0.26962719    -0.75400
O411        O  0.95398587  0.54986741  0.23764582    -0.75400
O412        O  0.90869755  0.44994722  0.26298525    -0.75500
Ni413      Ni  0.95659069  0.50186333  0.30864032     1.25400
Ni414      Ni  0.92978593  0.49920031  0.24919919     1.25400
C415        C  0.89899274  0.44016442  0.29490335     0.86800
C416        C  0.98385470  0.56138180  0.25727178     0.86700
C417        C  0.88393329  0.54663967  0.29888477     0.86800
C418        C  0.00500236  0.45881847  0.25696702     0.86900
C419        C  0.92207618  0.29160666  0.38854864     0.79300
N420        N  0.93163892  0.32131096  0.41304457    -0.79000
C421        C  0.92023350  0.31848095  0.44768627     0.81700
N422        N  0.89464463  0.28765927  0.45745140    -0.79000
C423        C  0.88490474  0.25662171  0.43457433     0.81800
N424        N  0.90052044  0.25691913  0.39970576    -0.80700
C425        C  0.92186544  0.27975046  0.62716393     0.79300
N426        N  0.91348817  0.31860439  0.61422004    -0.79000
C427        C  0.90797451  0.32344531  0.57874830     0.81700
N428        N  0.88605836  0.29305703  0.56211135    -0.79000
C429        C  0.88701363  0.25351278  0.57568356     0.81800
N430        N  0.90951448  0.24576873  0.60704919    -0.80700
C431        C  0.12888602  0.25669089  0.42864967     0.79300
N432        N  0.10690884  0.25515898  0.39632133    -0.79000
C433        C  0.08250954  0.28958299  0.38719007     0.81700
N434        N  0.07835034  0.32113105  0.41132923    -0.79000
C435        C  0.09592159  0.32013652  0.44391804     0.81800
N436        N  0.12353097  0.28955118  0.45098357    -0.80700
C437        C  0.13808624  0.25661580  0.56948668     0.79300
N438        N  0.13588484  0.29702870  0.55798944    -0.79000
C439        C  0.11335144  0.32545470  0.57712124     0.81700
N440        N  0.11100244  0.31805345  0.61261569    -0.79000
C441        C  0.10443992  0.27820235  0.62366708     0.81800
N442        N  0.11760072  0.24597222  0.60126222    -0.80700
O443        O  0.05104315  0.36273190  0.48054071    -0.75400
O444        O  0.96462744  0.36446624  0.55348369    -0.75400
O445        O  0.05475655  0.36569929  0.55229475    -0.75500
O446        O  0.96571241  0.36176515  0.48194742    -0.75500
O447        O  0.97039649  0.29224042  0.48525749    -0.75400
O448        O  0.05223622  0.29644056  0.55637015    -0.75400
O449        O  0.96826919  0.29501531  0.55474687    -0.75400
O450        O  0.05322520  0.29339095  0.48672847    -0.75500
Ni451      Ni  0.00901507  0.36674933  0.51756841     1.25400
Ni452      Ni  0.01113071  0.29219517  0.52112141     1.25400
C453        C  0.06639684  0.32685428  0.47252988     0.86800
C454        C  0.94884294  0.32894413  0.56150392     0.86700
C455        C  0.07116378  0.33051401  0.56171607     0.86800
C456        C  0.95324588  0.32543638  0.47311641     0.86900
O457        O  0.95236098  0.33623578  0.34732192    -0.75400
O458        O  0.04824107  0.36341047  0.29413296    -0.75400
O459        O  0.96470197  0.36986657  0.28164967    -0.75500
O460        O  0.03438269  0.33087402  0.35697283    -0.75500
O461        O  0.04639121  0.27051962  0.32932408    -0.75400
O462        O  0.95158876  0.30453531  0.26653324    -0.75400
O463        O  0.03886693  0.30765276  0.25980798    -0.75400
O464        O  0.96046736  0.26897753  0.33423122    -0.75500
Ni465      Ni  0.99984802  0.35209954  0.32060933     1.25400
Ni466      Ni  0.99974433  0.28477406  0.29587791     1.25400
C467        C  0.94382954  0.29809469  0.35362255     0.86800
C468        C  0.05611765  0.34328598  0.26536646     0.86700
C469        C  0.94138344  0.34365832  0.26571869     0.86800
C470        C  0.05381675  0.29589539  0.35558442     0.86900
O471        O  0.89130387  0.19025739  0.54013565    -0.75400
O472        O  0.84697498  0.11869292  0.46551612    -0.75400
O473        O  0.88956534  0.19127746  0.46524261    -0.75500
O474        O  0.84759441  0.11752478  0.53963759    -0.75500
O475        O  0.78795597  0.15375591  0.54145326    -0.75400
O476        O  0.82888324  0.22578179  0.46573853    -0.75400
O477        O  0.78629964  0.15321888  0.46716955    -0.75400
O478        O  0.83171019  0.22659743  0.53970450    -0.75500
Ni479      Ni  0.87098131  0.15319590  0.50257606     1.25400
Ni480      Ni  0.80665056  0.19109991  0.50356028     1.25400
C481        C  0.86885365  0.22075974  0.55192632     0.86800
C482        C  0.80931265  0.12360418  0.45459936     0.86700
C483        C  0.86598574  0.22094730  0.45340824     0.86800
C484        C  0.81078520  0.12324095  0.55263898     0.86900
O485        O  0.20427171  0.12988532  0.53351987    -0.75400
O486        O  0.14067528  0.19022297  0.45863712    -0.75400
O487        O  0.20106940  0.12741457  0.45799659    -0.75500
O488        O  0.14412649  0.19207610  0.53414721    -0.75500
O489        O  0.19357494  0.23971856  0.52938620    -0.75400
O490        O  0.24987038  0.17596997  0.45586485    -0.75400
O491        O  0.19156391  0.23654159  0.45571637    -0.75400
O492        O  0.25281904  0.17854049  0.52955266    -0.75500
Ni493      Ni  0.17061021  0.15805865  0.49604430     1.25400
Ni494      Ni  0.22346528  0.20915464  0.49254293     1.25400
C495        C  0.23945475  0.14475720  0.54374647     0.86800
C496        C  0.15575879  0.22408615  0.44549507     0.86700
C497        C  0.23560449  0.14106256  0.44501030     0.86800
C498        C  0.15987349  0.22693634  0.54417333     0.86900
O499        O  0.77980097  0.55159988  0.13713744    -0.75400
O500        O  0.80563501  0.46458167  0.20837734    -0.75400
O501        O  0.80907775  0.55234088  0.20649734    -0.75500
O502        O  0.77545228  0.46638871  0.14032958    -0.75500
O503        O  0.83976554  0.46378026  0.11772285    -0.75400
O504        O  0.87478164  0.54791617  0.18788188    -0.75400
O505        O  0.86980367  0.45865549  0.18634425    -0.75400
O506        O  0.84570885  0.54911000  0.11848868    -0.75500
Ni507      Ni  0.79045109  0.50901240  0.17410051     1.25400
Ni508      Ni  0.85996692  0.50471778  0.15219812     1.25400
C509        C  0.80857150  0.56409922  0.11553623     0.86800
C510        C  0.84102404  0.44494491  0.20737302     0.86700
C511        C  0.84666860  0.56565124  0.20782365     0.86800
C512        C  0.80162587  0.45181114  0.11739538     0.86900
O513        O  0.16524345  0.54228811  0.12472875    -0.75400
O514        O  0.12688898  0.45840922  0.18714087    -0.75400
O515        O  0.10777586  0.53966639  0.17645036    -0.75500
O516        O  0.18544012  0.46097448  0.13809184    -0.75500
O517        O  0.23449996  0.48506603  0.17487063    -0.75400
O518        O  0.15312306  0.55928504  0.21864446    -0.75400
O519        O  0.17320258  0.47624217  0.22904002    -0.75400
O520        O  0.20894135  0.56819562  0.16529455    -0.75500
Ni521      Ni  0.14514385  0.49965171  0.15530744     1.25400
Ni522      Ni  0.19479585  0.52226979  0.19869304     1.25400
C523        C  0.18869067  0.57179385  0.13529950     0.86800
C524        C  0.14208791  0.45388805  0.21854055     0.86700
C525        C  0.11741960  0.56254381  0.20353669     0.86800
C526        C  0.22353159  0.46280029  0.14775551     0.86900
O527        O  0.68506677  0.34823473  0.96837299    -0.75400
O528        O  0.65587701  0.26219383  0.03497567    -0.75400
O529        O  0.69394808  0.33541668  0.04073127    -0.75500
O530        O  0.64797318  0.27639100  0.95906223    -0.75500
O531        O  0.70921757  0.24458149  0.95125555    -0.75400
O532        O  0.75706191  0.30937224  0.02862455    -0.75400
O533        O  0.71842598  0.23307280  0.02710916    -0.75400
O534        O  0.74590072  0.31845351  0.95430767    -0.75500
Ni535      Ni  0.66862737  0.30619684  0.00133577     1.25400
Ni536      Ni  0.73493474  0.27482216  0.99043470     1.25400
C537        C  0.71747893  0.34625948  0.94817124     0.86800
C538        C  0.68293839  0.23432185  0.04384972     0.86700
C539        C  0.73354977  0.33570802  0.04523343     0.86800
C540        C  0.67229843  0.25329642  0.93966165     0.86900
O541        O  0.76518517  0.54197199  0.81068480    -0.75400
O542        O  0.81103530  0.44474267  0.76258862    -0.75400
O543        O  0.75615011  0.45637095  0.81567653    -0.75500
O544        O  0.81734056  0.53066037  0.75647853    -0.75500
O545        O  0.87063526  0.53139424  0.79467212    -0.75400
O546        O  0.80670853  0.45289004  0.85655911    -0.75400
O547        O  0.86330125  0.44218624  0.80188708    -0.75400
O548        O  0.81664814  0.54156104  0.85079492    -0.75500
Ni549      Ni  0.78591410  0.49343171  0.78521274     1.25400
Ni550      Ni  0.84143500  0.49184164  0.82752009     1.25400
C551        C  0.78391398  0.55931313  0.83744943     0.86800
C552        C  0.84381698  0.42606565  0.77492204     0.86700
C553        C  0.77064249  0.44090709  0.84497595     0.86800
C554        C  0.85249960  0.54548497  0.76573093     0.86900
O555        O  0.96724825  0.31792331  0.66170259    -0.75400
O556        O  0.06592198  0.33920060  0.71164463    -0.75400
O557        O  0.04701755  0.31079202  0.64831338    -0.75500
O558        O  0.98262277  0.34774164  0.72779437    -0.75500
O559        O  0.96649217  0.28228214  0.73884387    -0.75400
O560        O  0.06161068  0.25066273  0.67530728    -0.75400
O561        O  0.05405849  0.28385977  0.74570833    -0.75400
O562        O  0.97357199  0.24976314  0.67086629    -0.75500
Ni563      Ni  0.01568501  0.33107223  0.68679055     1.25400
Ni564      Ni  0.01446891  0.26306203  0.70902834     1.25400
C565        C  0.95514704  0.28089362  0.65526331     0.86800
C566        C  0.07276296  0.31881326  0.74046443     0.86700
C567        C  0.06912058  0.27756944  0.65016393     0.86800
C568        C  0.95696734  0.32153885  0.74071743     0.86900
O569        O  0.18886216  0.52624146  0.86978817    -0.75400
O570        O  0.14713083  0.43678088  0.81477500    -0.75400
O571        O  0.20827351  0.44357026  0.86179246    -0.75500
O572        O  0.12899142  0.51919470  0.81996827    -0.75500
O573        O  0.17342783  0.53410644  0.77550225    -0.75400
O574        O  0.25511280  0.46263900  0.82067235    -0.75400
O575        O  0.19131410  0.45045373  0.76992397    -0.75400
O576        O  0.23199218  0.54615415  0.82607705    -0.75500
Ni577      Ni  0.16710084  0.48083852  0.84303123     1.25400
Ni578      Ni  0.21509807  0.49823894  0.79630504     1.25400
C579        C  0.21347680  0.55326626  0.85647582     0.86800
C580        C  0.16054268  0.42953455  0.78307511     0.86700
C581        C  0.24595078  0.44508774  0.85071816     0.86800
C582        C  0.13819166  0.53920613  0.79100886     0.86900
O583        O  0.33763449  0.39186917  0.05026380    -0.75400
O584        O  0.40534676  0.34174879  0.97754590    -0.75400
O585        O  0.34561299  0.40139092  0.97828237    -0.75500
O586        O  0.39738968  0.33188675  0.04920346    -0.75500
O587        O  0.35020780  0.28269866  0.03962282    -0.75400
O588        O  0.29746374  0.35348154  0.96734812    -0.75400
O589        O  0.35761795  0.29333487  0.96678639    -0.75400
O590        O  0.28810696  0.34513466  0.04034532    -0.75500
Ni591      Ni  0.37301108  0.36826153  0.01425146     1.25400
Ni592      Ni  0.32139827  0.31674436  0.00355866     1.25400
C593        C  0.30079909  0.37870088  0.05557594     0.86800
C594        C  0.39312232  0.30962079  0.96033388     0.86700
C595        C  0.31346249  0.38916288  0.96102580     0.86800
C596        C  0.38428915  0.29492465  0.05422799     0.86900
O597        O  0.52992652  0.18899278  0.87302570    -0.75400
O598        O  0.44127050  0.13505086  0.82568988    -0.75400
O599        O  0.52454825  0.12203196  0.83029957    -0.75500
O600        O  0.44599935  0.20244616  0.86574413    -0.75500
O601        O  0.46270015  0.24524865  0.82068902    -0.75400
O602        O  0.53352426  0.15981707  0.78026502    -0.75400
O603        O  0.44924913  0.17527663  0.77705772    -0.75400
O604        O  0.54692168  0.22491317  0.82381698    -0.75500
Ni605      Ni  0.48494655  0.16109683  0.85031377     1.25400
Ni606      Ni  0.49781224  0.20322862  0.79849050     1.25400
C607        C  0.55589806  0.21144276  0.85576794     0.86800
C608        C  0.43108440  0.14494232  0.79360651     0.86700
C609        C  0.54185945  0.12760955  0.79941258     0.86800
C610        C  0.44639018  0.23884630  0.85178991     0.86900
O611        O  0.54768328  0.15197959  0.11781640    -0.75400
O612        O  0.46168449  0.11023046  0.17633462    -0.75400
O613        O  0.46595885  0.17169832  0.13009816    -0.75500
O614        O  0.54338771  0.09121861  0.16707323    -0.75500
O615        O  0.56226130  0.13478300  0.21091005    -0.75400
O616        O  0.48794311  0.21798829  0.17049284    -0.75400
O617        O  0.47894494  0.15358699  0.22078716    -0.75400
O618        O  0.57153633  0.19425182  0.16045423    -0.75500
Ni619      Ni  0.50404135  0.13009968  0.14641427     1.25400
Ni620      Ni  0.52523980  0.17726924  0.19243230     1.25400
C621        C  0.57624772  0.17581145  0.12969709     0.86800
C622        C  0.45652193  0.12358943  0.20828776     0.86700
C623        C  0.46653469  0.20891163  0.14239930     0.86800
C624        C  0.56585141  0.09971567  0.19477743     0.86900
O625        O  0.33523100  0.95572199  0.66313459    -0.75400
O626        O  0.34926605  0.05077020  0.72028014    -0.75400
O627        O  0.35499020  0.96642646  0.73304689    -0.75500
O628        O  0.33043002  0.03722292  0.65411769    -0.75500
O629        O  0.26508468  0.04713840  0.67205367    -0.75400
O630        O  0.28819500  0.95209310  0.73814017    -0.75400
O631        O  0.28828204  0.03937738  0.74626724    -0.75400
O632        O  0.26621768  0.96013987  0.66759215    -0.75500
Ni633      Ni  0.34462730  0.00251276  0.69236594     1.25400
Ni634      Ni  0.27352934  0.00034693  0.70702031     1.25400
C635        C  0.29916454  0.94325973  0.65374899     0.86800
C636        C  0.32417658  0.05717458  0.74617882     0.86700
C637        C  0.32671826  0.94135193  0.74308415     0.86800
C638        C  0.29536576  0.05593563  0.65038686     0.86900
O639        O  0.54847659  0.75411631  0.81306144    -0.75400
O640        O  0.45052791  0.79733689  0.76495217    -0.75400
O641        O  0.53653779  0.80539010  0.75864250    -0.75500
O642        O  0.46306679  0.74404989  0.81840649    -0.75500
O643        O  0.45857343  0.79526862  0.85864931    -0.75400
O644        O  0.53664711  0.85887470  0.79669812    -0.75400
O645        O  0.44713532  0.85016732  0.80364785    -0.75400
O646        O  0.54741764  0.80566892  0.85309198    -0.75500
Ni647      Ni  0.49972677  0.77372610  0.78763766     1.25400
Ni648      Ni  0.49731430  0.82968703  0.82953677     1.25400
C649        C  0.56560980  0.77311092  0.83973414     0.86800
C650        C  0.43091645  0.82951597  0.77732636     0.86700
C651        C  0.55116479  0.84062320  0.76799164     0.86800
C652        C  0.44673850  0.75917648  0.84712000     0.86900
O653        O  0.32417073  0.73872150  0.95656944    -0.75400
O654        O  0.23900123  0.71330708  0.03015720    -0.75400
O655        O  0.31597910  0.74993726  0.03097043    -0.75500
O656        O  0.24909941  0.70432523  0.95425755    -0.75500
O657        O  0.27974600  0.64231655  0.96128736    -0.75400
O658        O  0.34016748  0.68597959  0.04282282    -0.75400
O659        O  0.26663331  0.64988326  0.03698634    -0.75400
O660        O  0.35264709  0.67723180  0.97057200    -0.75500
Ni661      Ni  0.28057866  0.72895481  0.99307469     1.25400
Ni662      Ni  0.31040145  0.66176551  0.00340391     1.25400
C663        C  0.35124541  0.70958208  0.95034274     0.86800
C664        C  0.23986953  0.67761690  0.04659563     0.86700
C665        C  0.34157210  0.72551930  0.04739804     0.86800
C666        C  0.25670053  0.66727345  0.94247886     0.86900
O667        O  0.55948799  0.76777376  0.13697836    -0.75400
O668        O  0.47314079  0.79081991  0.20922990    -0.75400
O669        O  0.47462735  0.76305818  0.14058512    -0.75500
O670        O  0.56091029  0.79542082  0.20667558    -0.75500
O671        O  0.55585852  0.86140485  0.18883800    -0.75400
O672        O  0.47102523  0.82801879  0.11932057    -0.75400
O673        O  0.46649828  0.85551234  0.18847304    -0.75400
O674        O  0.55612158  0.83397424  0.11906180    -0.75500
Ni675      Ni  0.51736623  0.77722789  0.17435006     1.25400
Ni676      Ni  0.51223627  0.84724346  0.15361098     1.25400
C677        C  0.57129023  0.79693065  0.11551963     0.86800
C678        C  0.45299066  0.82589970  0.20882197     0.86700
C679        C  0.45954020  0.78980543  0.11838733     0.86800
C680        C  0.57404671  0.83307823  0.20818881     0.86900
O681        O  0.34595944  0.94408412  0.34545454    -0.75400
O682        O  0.36870320  0.03427029  0.28465413    -0.75400
O683        O  0.33944100  0.02641650  0.34844177    -0.75500
O684        O  0.37651569  0.94997838  0.27828332    -0.75500
O685        O  0.31094622  0.93486519  0.26550647    -0.75400
O686        O  0.27659405  0.03328887  0.32418639    -0.75400
O687        O  0.31145331  0.02112140  0.25336867    -0.75400
O688        O  0.27814774  0.94730101  0.33336402    -0.75500
Ni689      Ni  0.35955229  0.98875152  0.31472225     1.25400
Ni690      Ni  0.29105731  0.98458630  0.29265217     1.25400
C691        C  0.30872502  0.93277063  0.35231204     0.86800
C692        C  0.34735323  0.03871213  0.25615667     0.86700
C693        C  0.30346551  0.04379440  0.34844615     0.86800
C694        C  0.35015968  0.92518471  0.26441442     0.86900
O695        O  0.24192484  0.81783098  0.54106199    -0.75400
O696        O  0.16466498  0.77889277  0.46856792    -0.75400
O697        O  0.24049124  0.81552352  0.46707910    -0.75500
O698        O  0.16519998  0.78088326  0.54302007    -0.75500
O699        O  0.13496899  0.84375258  0.54157756    -0.75400
O700        O  0.21021638  0.87839072  0.46565760    -0.75400
O701        O  0.13447592  0.84180494  0.46740825    -0.75400
O702        O  0.21112754  0.88045279  0.54059787    -0.75500
Ni703      Ni  0.20417284  0.79609001  0.50499738     1.25400
Ni704      Ni  0.17169512  0.86329441  0.50378560     1.25400
C705        C  0.23945090  0.85550779  0.55274413     0.86800
C706        C  0.13662298  0.80396529  0.45621901     0.86700
C707        C  0.23787789  0.85251121  0.45389632     0.86800
C708        C  0.13717619  0.80662776  0.55450544     0.86900
O709        O  0.97184640  0.68043438  0.36759632    -0.75400
O710        O  0.05336948  0.66274639  0.29570162    -0.75400
O711        O  0.05169787  0.70369016  0.35674300    -0.75500
O712        O  0.97068539  0.63949084  0.30511829    -0.75500
O713        O  0.94545353  0.69585878  0.27713253    -0.75400
O714        O  0.02801697  0.76090539  0.32909068    -0.75400
O715        O  0.02623578  0.71466229  0.26320742    -0.75400
O716        O  0.94574053  0.73735760  0.34119736    -0.75500
Ni717      Ni  0.01282166  0.66985483  0.33198465     1.25400
Ni718      Ni  0.98639268  0.72993933  0.30148514     1.25400
C719        C  0.94386985  0.70917181  0.36598955     0.86800
C720        C  0.04837375  0.68081489  0.26552438     0.86700
C721        C  0.05053796  0.74332318  0.35376910     0.86800
C722        C  0.94321842  0.65689240  0.28429725     0.86900
O723        O  0.74058343  0.79177057  0.47503917    -0.75400
O724        O  0.80155322  0.73787801  0.55130657    -0.75400
O725        O  0.74308583  0.79607830  0.55058817    -0.75500
O726        O  0.79961806  0.73363142  0.47596757    -0.75500
O727        O  0.84831220  0.78196478  0.47176453    -0.75400
O728        O  0.79056535  0.84573778  0.54882529    -0.75400
O729        O  0.85043980  0.78623276  0.54973385    -0.75400
O730        O  0.78823142  0.84111884  0.47059737    -0.75500
Ni731      Ni  0.76974258  0.76341249  0.51330260     1.25400
Ni732      Ni  0.82127196  0.81571112  0.51008676     1.25400
C733        C  0.75511647  0.82350399  0.45840576     0.86800
C734        C  0.83437875  0.75392060  0.56490550     0.86700
C735        C  0.75832202  0.82952082  0.56400794     0.86800
C736        C  0.83181127  0.74810598  0.45989181     0.86900
O737        O  0.68912349  0.96225157  0.36698415    -0.75400
O738        O  0.66485131  0.04101329  0.29407691    -0.75400
O739        O  0.64540505  0.95803736  0.30594183    -0.75500
O740        O  0.70915468  0.04248167  0.35345645    -0.75500
O741        O  0.76638762  0.01756840  0.32668231    -0.75400
O742        O  0.70076580  0.93579706  0.27473465    -0.75400
O743        O  0.71855088  0.01719160  0.26176531    -0.75400
O744        O  0.74367883  0.93512210  0.33774195    -0.75500
Ni745      Ni  0.67543733  0.00185817  0.33091474     1.25400
Ni746      Ni  0.73502373  0.97654181  0.29896472     1.25400
C747        C  0.71698773  0.93362164  0.36372538     0.86800
C748        C  0.68349593  0.03734544  0.26399873     0.86700
C749        C  0.66261455  0.93164042  0.28398793     0.86800
C750        C  0.74878129  0.04042326  0.35106339     0.86900
O751        O  0.98593202  0.69577930  0.63540340    -0.75400
O752        O  0.07116799  0.65293583  0.69673290    -0.75400
O753        O  0.98979204  0.63270864  0.68208603    -0.75500
O754        O  0.06712442  0.71426871  0.65064703    -0.75500
O755        O  0.04034582  0.75914794  0.69047757    -0.75400
O756        O  0.96590644  0.67274591  0.72691343    -0.75400
O757        O  0.04702049  0.69253347  0.74162659    -0.75400
O758        O  0.95892106  0.73557248  0.67909612    -0.75500
Ni759      Ni  0.02945012  0.67272136  0.66491934     1.25400
Ni760      Ni  0.00321567  0.71715447  0.71147316     1.25400
C761        C  0.95587938  0.71829887  0.64800070     0.86800
C762        C  0.06840590  0.66085291  0.73033176     0.86700
C763        C  0.96354246  0.63941006  0.70782161     0.86800
C764        C  0.06250803  0.75141412  0.66199216     0.86900
O765        O  0.69147039  0.98050697  0.63762512    -0.75400
O766        O  0.65161245  0.06263497  0.70384974    -0.75400
O767        O  0.71026685  0.06183555  0.65424891    -0.75500
O768        O  0.63222954  0.98213870  0.68778343    -0.75500
O769        O  0.67612323  0.95655302  0.72913544    -0.75400
O770        O  0.75811845  0.03430541  0.69086043    -0.75400
O771        O  0.69462464  0.03711989  0.74571870    -0.75400
O772        O  0.73562875  0.95306446  0.67783863    -0.75500
Ni773      Ni  0.67015748  0.02283277  0.66965239     1.25400
Ni774      Ni  0.71840147  0.99544121  0.71275751     1.25400
C775        C  0.71624824  0.95081309  0.64759853     0.86800
C776        C  0.66167517  0.05819389  0.73686118     0.86700
C777        C  0.74830776  0.05639995  0.66281028     0.86800
C778        C  0.64148748  0.95470294  0.71191448     0.86900
O779        O  0.66334886  0.71214484  0.96386161    -0.75400
O780        O  0.73872929  0.67026342  0.03461747    -0.75400
O781        O  0.68057480  0.72629567  0.03530357    -0.75500
O782        O  0.72446552  0.65375410  0.96279427    -0.75500
O783        O  0.76943300  0.70055175  0.94275329    -0.75400
O784        O  0.72195124  0.77664956  0.01574901    -0.75400
O785        O  0.78681190  0.71458992  0.01566515    -0.75400
O786        O  0.70801693  0.75876527  0.94298545    -0.75500
Ni787      Ni  0.70054985  0.68926618  0.99968979     1.25400
Ni788      Ni  0.74872475  0.73988901  0.97954810     1.25400
C789        C  0.67362455  0.73897616  0.93969905     0.86800
C790        C  0.77613287  0.68274498  0.03491074     0.86700
C791        C  0.69091062  0.76441473  0.03518615     0.86800
C792        C  0.75076764  0.66567316  0.93870707     0.86900
loop_ 
_geom_bond_atom_site_label_1 
_geom_bond_atom_site_label_2 
_geom_bond_distance 
_geom_bond_site_symmetry_2 
_ccdc_geom_bond_type 
C1            N2   1.393       .  A
C1            N6   1.368       .  A
C1          C733   1.509       .  S
N2            C3   1.389       .  A
C3            N4   1.364       .  A
C3          C747   1.493       .  S
N4            C5   1.339       .  A
C5            N6   1.358       .  A
C5           C37   1.475       .  S
C7            N8   1.368       .  A
C7           N12   1.395       .  A
C7          C735   1.521       .  S
N8            C9   1.357       .  A
C9           N10   1.340       .  A
C9           C35   1.480       .  S
N10          C11   1.362       .  A
C11          N12   1.395       .  A
C11         C775   1.489       .  S
C13          N14   1.343       .  A
C13          N18   1.381       .  A
C13         C750   1.464       .  S
N14          C15   1.330       .  A
C15          N16   1.340       .  A
C15          C36   1.419   1_545  S
N16          C17   1.349       .  A
C17          N18   1.383       .  A
C17         C482   1.472       .  S
C19          N20   1.347       .  A
C19          N24   1.382       .  A
C19         C777   1.468       .  S
N20          C21   1.334       .  A
C21          N22   1.350       .  A
C21          C38   1.443   1_545  S
N22          C23   1.354       .  A
C23          N24   1.382       .  A
C23         C484   1.490       .  S
O25         Ni33   1.933       .  S
O25          C35   1.280       .  A
O26         Ni33   1.913   1_545  S
O26          C36   1.285   1_545  A
O27         Ni33   1.949       .  S
O27          C37   1.282       .  A
O28         Ni33   1.926   1_545  S
O28          C38   1.287   1_545  A
O29         Ni34   1.877       .  S
O29          C38   1.268       .  A
O30         Ni34   1.810       .  S
O30          C37   1.267       .  A
O31         Ni34   1.863       .  S
O31          C36   1.266       .  A
O32         Ni34   1.845       .  S
O32          C35   1.269       .  A
Ni33        Ni34   2.374       .  S
C39          N40   1.396       .  A
C39          N44   1.367       .  A
C39         C736   1.513       .  S
N40          C41   1.392       .  A
C41          N42   1.364       .  A
C41         C719   1.498       .  S
N42          C43   1.338       .  A
C43          N44   1.357       .  A
C43          C76   1.472       .  S
C45          N46   1.369       .  A
C45          N50   1.393       .  A
C45         C734   1.509       .  S
N46          C47   1.357       .  A
C47          N48   1.338       .  A
C47          C73   1.484       .  S
N48          C49   1.362       .  A
C49          N50   1.391       .  A
C49         C761   1.480       .  S
C51          N52   1.342       .  A
C51          N56   1.384       .  A
C51         C721   1.469       .  S
N52          C53   1.330       .  A
C53          N54   1.339       .  A
C53          C74   1.417       .  S
N54          C55   1.348       .  A
C55          N56   1.386       .  A
C55         C706   1.477       .  S
C57          N58   1.350       .  A
C57          N62   1.383       .  A
C57         C764   1.466       .  S
N58          C59   1.338       .  A
C59          N60   1.349       .  A
C59          C75   1.444       .  S
N60          C61   1.351       .  A
C61          N62   1.379       .  A
C61         C708   1.489       .  S
O63         Ni71   1.933       .  S
O63          C73   1.280       .  A
O64         Ni71   1.911   1_455  S
O64          C74   1.284       .  A
O65         Ni71   1.924   1_455  S
O65          C75   1.287       .  A
O66         Ni71   1.942       .  S
O66          C76   1.281       .  A
O67         Ni72   1.814       .  S
O67          C76   1.268       .  A
O68         Ni72   1.878       .  S
O68          C75   1.268   1_655  A
O69         Ni72   1.863       .  S
O69          C74   1.266   1_655  A
O70         Ni72   1.842       .  S
O70          C73   1.270       .  A
Ni71        Ni72   2.379       .  S
C77          N78   1.355       .  A
C77          N82   1.380       .  A
C77         C691   1.488       .  S
N78          C79   1.336       .  A
C79          N80   1.348       .  A
C79         C114   1.447       .  S
N80          C81   1.352       .  A
C81          N82   1.384       .  A
C81         C707   1.481       .  S
C83          N84   1.378       .  A
C83          N88   1.357       .  A
C83         C635   1.483       .  S
N84          C85   1.381       .  A
C85          N86   1.363       .  A
C85         C705   1.492       .  S
N86          C87   1.360       .  A
C87          N88   1.337       .  A
C87         C112   1.462       .  S
C89          N90   1.352       .  A
C89          N94   1.393       .  A
C89         C497   1.488       .  S
N90          C91   1.342       .  A
C91          N92   1.324       .  A
C91         C111   1.437       .  S
N92          C93   1.354       .  A
C93          N94   1.388       .  A
C93         C693   1.504       .  S
C95          N96   1.359       .  A
C95         N100   1.391       .  A
C95         C495   1.499       .  S
N96          C97   1.351       .  A
C97          N98   1.329       .  A
C97         C113   1.455       .  S
N98          C99   1.357       .  A
C99         N100   1.387       .  A
C99         C638   1.502       .  S
O101       Ni109   1.849   1_545  S
O101        C111   1.270       .  A
O102       Ni109   1.847       .  S
O102        C112   1.271       .  A
O103       Ni109   1.861   1_545  S
O103        C113   1.274       .  A
O104       Ni109   1.864       .  S
O104        C114   1.275       .  A
O105       Ni110   1.928       .  S
O105        C114   1.281       .  A
O106       Ni110   1.937   1_545  S
O106        C113   1.284       .  A
O107       Ni110   1.948       .  S
O107        C112   1.287       .  A
O108       Ni110   1.933   1_545  S
O108        C111   1.284       .  A
Ni109      Ni110   2.397       .  S
C115        N116   1.364       .  A
C115        N120   1.397       .  A
C115        C694   1.497       .  S
N116        C117   1.347       .  A
C117        N118   1.370       .  A
C117        C149   1.496       .  S
N118        C119   1.374       .  A
C119        N120   1.400       .  A
C119        C678   1.532       .  S
C121        N122   1.361       .  A
C121        N126   1.394       .  A
C121        C749   1.495       .  S
N122        C123   1.347       .  A
C123        N124   1.354       .  A
C123        C152   1.479       .  S
N124        C125   1.363       .  A
C125        N126   1.394       .  A
C125        C680   1.517       .  S
C127        N128   1.357       .  A
C127        N132   1.378       .  A
C127        C692   1.472       .  S
N128        C129   1.354       .  A
C129        N130   1.350       .  A
C129        C151   1.444   1_545  S
N130        C131   1.352       .  A
C131        N132   1.377       .  A
C131        C622   1.470       .  S
C133        N134   1.346       .  A
C133        N138   1.376       .  A
C133        C624   1.467       .  S
N134        C135   1.341   1_545  A
C135        N136   1.336       .  A
C135        C150   1.436       .  S
N136        C137   1.350   1_565  A
C137        N138   1.377       .  A
C137        C748   1.458       .  S
O139       Ni147   1.969       .  S
O139        C149   1.283       .  A
O140       Ni147   1.939       .  S
O140        C150   1.292       .  A
O141       Ni147   1.926       .  S
O141        C151   1.287       .  A
O142       Ni147   1.907       .  S
O142        C152   1.277       .  A
O143       Ni148   1.892       .  S
O143        C152   1.279       .  A
O144       Ni148   1.886       .  S
O144        C151   1.271       .  A
O145       Ni148   1.858       .  S
O145        C150   1.262       .  A
O146       Ni148   1.791       .  S
O146        C149   1.258       .  A
Ni147      Ni148   2.362       .  S
C153        N154   1.370       .  A
C153        N158   1.392       .  A
C153        C652   1.508       .  S
N154        C155   1.354       .  A
C155        N156   1.338       .  A
C155        C188   1.468       .  S
N156        C157   1.366       .  A
C157        N158   1.390       .  A
C157        C663   1.494       .  S
C159        N160   1.403       .  A
C159        N164   1.365       .  A
C159        C649   1.516       .  S
N160        C161   1.400       .  A
C161        N162   1.357       .  A
C161        C789   1.503       .  S
N162        C163   1.334       .  A
C163        N164   1.349       .  A
C163        C189   1.476       .  S
C165        N166   1.383       .  A
C165        N170   1.353       .  A
C165        C679   1.469       .  S
N166        C167   1.377       .  A
C167        N168   1.336       .  A
C167        C665   1.453       .  S
N168        C169   1.322       .  A
C169        N170   1.343       .  A
C169        C190   1.411       .  S
C171        N172   1.380       .  A
C171        N176   1.355       .  A
C171        C677   1.499       .  S
N172        C173   1.385       .  A
C173        N174   1.349       .  A
C173        C791   1.471       .  S
N174        C175   1.341       .  A
C175        N176   1.353       .  A
C175        C187   1.444   1_554  S
O177       Ni185   1.932       .  S
O177        C187   1.289       .  A
O178       Ni185   1.944       .  S
O178        C188   1.281       .  A
O179       Ni185   1.926       .  S
O179        C189   1.279       .  A
O180       Ni185   1.897   1_554  S
O180        C190   1.280       .  A
O181       Ni186   1.868       .  S
O181        C190   1.269   1_556  A
O182       Ni186   1.851       .  S
O182        C189   1.274       .  A
O183       Ni186   1.814       .  S
O183        C188   1.268       .  A
O184       Ni186   1.866       .  S
O184        C187   1.266       .  A
Ni185      Ni186   2.383       .  S
C191        N192   1.361       .  A
C191        N196   1.401       .  A
C191        C637   1.498       .  S
N192        C193   1.345       .  A
C193        N194   1.360       .  A
C193        C225   1.504       .  S
N194        C195   1.371       .  A
C195        N196   1.403       .  A
C195        C650   1.521       .  S
C197        N198   1.363       .  A
C197        N202   1.390       .  A
C197        C778   1.487       .  S
N198        C199   1.343       .  A
C199        N200   1.352       .  A
C199        C227   1.472       .  S
N200        C201   1.365       .  A
C201        N202   1.388       .  A
C201        C651   1.512       .  S
C203        N204   1.358       .  A
C203        N208   1.381       .  A
C203        C636   1.475       .  S
N204        C205   1.354       .  A
C205        N206   1.349       .  A
C205        C228   1.449       .  S
N206        C207   1.350       .  A
C207        N208   1.376       .  A
C207        C608   1.474       .  S
C209        N210   1.346       .  A
C209        N214   1.376       .  A
C209        C609   1.458       .  S
N210        C211   1.340       .  A
C211        N212   1.336       .  A
C211        C226   1.431   1_545  S
N212        C213   1.351       .  A
C213        N214   1.374       .  A
C213        C776   1.461       .  S
O215       Ni223   1.965       .  S
O215        C225   1.283       .  A
O216       Ni223   1.923   1_545  S
O216        C226   1.286   1_545  A
O217       Ni223   1.919       .  S
O217        C227   1.277       .  A
O218       Ni223   1.924   1_545  S
O218        C228   1.289       .  A
O219       Ni224   1.888       .  S
O219        C228   1.269   1_565  A
O220       Ni224   1.858       .  S
O220        C227   1.274       .  A
O221       Ni224   1.867       .  S
O221        C226   1.266       .  A
O222       Ni224   1.810       .  S
O222        C225   1.267       .  A
Ni223      Ni224   2.376       .  S
C229        N230   1.352       .  A
C229        N234   1.368       .  A
C229        C594   1.461       .  S
N230        C231   1.347       .  A
C231        N232   1.333       .  A
C231        C263   1.442       .  S
N232        C233   1.347       .  A
C233        N234   1.370       .  A
C233        C610   1.441       .  S
C235        N236   1.395       .  A
C235        N240   1.365       .  A
C235        C540   1.511       .  S
N236        C237   1.392       .  A
C237        N238   1.364       .  A
C237        C607   1.490       .  S
N238        C239   1.344       .  A
C239        N240   1.355       .  A
C239        C266   1.491       .  S
C241        N242   1.357       .  A
C241        N246   1.376       .  A
C241        C596   1.470       .  S
N242        C243   1.346       .  A
C243        N244   1.326       .  A
C243        C265   1.427       .  S
N244        C245   1.340       .  A
C245        N246   1.376       .  A
C245        C623   1.448       .  S
C247        N248   1.399       .  A
C247        N252   1.370       .  A
C247        C538   1.518       .  S
N248        C249   1.390       .  A
C249        N250   1.363       .  A
C249        C621   1.503       .  S
N250        C251   1.342       .  A
C251        N252   1.367       .  A
C251        C264   1.483       .  S
O253       Ni261   1.928       .  S
O253        C263   1.290       .  A
O254       Ni261   1.963   1_554  S
O254        C264   1.285       .  A
O255       Ni261   1.917   1_554  S
O255        C265   1.286       .  A
O256       Ni261   1.928       .  S
O256        C266   1.278       .  A
O257       Ni262   1.871       .  S
O257        C266   1.273       .  A
O258       Ni262   1.874   1_554  S
O258        C265   1.269       .  A
O259       Ni262   1.805   1_554  S
O259        C264   1.262       .  A
O260       Ni262   1.870       .  S
O260        C263   1.265       .  A
Ni261      Ni262   2.366       .  S
C267        N268   1.371       .  A
C267        N272   1.352       .  A
C267        C595   1.466       .  S
N268        C269   1.373       .  A
C269        N270   1.345       .  A
C269        C581   1.444       .  S
N270        C271   1.330       .  A
C271        N272   1.347       .  A
C271        C301   1.435       .  S
C273        N274   1.363       .  A
C273        N278   1.393       .  A
C273        C666   1.504       .  S
N274        C275   1.354       .  A
C275        N276   1.346       .  A
C275        C304   1.486       .  S
N276        C277   1.364       .  A
C277        N278   1.389       .  A
C277        C579   1.493       .  S
C279        N280   1.357       .  A
C279        N284   1.376       .  A
C279        C593   1.468       .  S
N280        C281   1.346       .  A
C281        N282   1.329       .  A
C281        C303   1.429       .  S
N282        C283   1.342       .  A
C283        N284   1.375       .  A
C283        C526   1.451       .  S
C285        N286   1.370       .  A
C285        N290   1.395       .  A
C285        C664   1.512       .  S
N286        C287   1.368       .  A
C287        N288   1.343       .  A
C287        C302   1.481       .  S
N288        C289   1.364       .  A
C289        N290   1.385       .  A
C289        C523   1.500       .  S
O291       Ni299   1.864       .  S
O291        C301   1.264       .  A
O292       Ni299   1.805   1_554  S
O292        C302   1.262       .  A
O293       Ni299   1.876   1_554  S
O293        C303   1.270       .  A
O294       Ni299   1.875       .  S
O294        C304   1.274       .  A
O295       Ni300   1.925       .  S
O295        C304   1.278       .  A
O296       Ni300   1.918   1_554  S
O296        C303   1.285       .  A
O297       Ni300   1.963   1_554  S
O297        C302   1.285       .  A
O298       Ni300   1.926       .  S
O298        C301   1.289       .  A
Ni299      Ni300   2.366       .  S
C305        N306   1.361       .  A
C305        N310   1.400       .  A
C305        C568   1.500       .  S
N306        C307   1.345       .  A
C307        N308   1.360       .  A
C307        C339   1.497       .  S
N308        C309   1.370       .  A
C309        N310   1.402       .  A
C309        C552   1.519       .  S
C311        N312   1.364       .  A
C311        N316   1.392       .  A
C311        C763   1.497       .  S
N312        C313   1.346       .  A
C313        N314   1.351       .  A
C313        C342   1.470       .  S
N314        C315   1.364       .  A
C315        N316   1.389       .  A
C315        C554   1.514       .  S
C317        N318   1.380       .  A
C317        N322   1.353       .  A
C317        C566   1.478       .  S
N318        C319   1.379       .  A
C319        N320   1.355       .  A
C319        C580   1.479       .  S
N320        C321   1.354       .  A
C321        N322   1.351       .  A
C321        C341   1.446       .  S
C323        N324   1.347       .  A
C323        N328   1.377       .  A
C323        C582   1.459       .  S
N324        C325   1.340       .  A
C325        N326   1.330       .  A
C325        C340   1.422       .  S
N326        C327   1.347       .  A
C327        N328   1.374       .  A
C327        C762   1.455       .  S
O329       Ni337   1.966       .  S
O329        C339   1.285       .  A
O330       Ni337   1.919   1_455  S
O330        C340   1.285       .  A
O331       Ni337   1.925   1_455  S
O331        C341   1.288       .  A
O332       Ni337   1.921       .  S
O332        C342   1.277       .  A
O333       Ni338   1.864       .  S
O333        C342   1.275       .  A
O334       Ni338   1.884       .  S
O334        C341   1.270   1_655  A
O335       Ni338   1.858       .  S
O335        C340   1.264   1_655  A
O336       Ni338   1.813       .  S
O336        C339   1.266       .  A
Ni337      Ni338   2.375       .  S
C343        N344   1.369       .  A
C343        N348   1.394       .  A
C343        C553   1.513       .  S
N344        C345   1.354       .  A
C345        N346   1.337       .  A
C345        C378   1.466       .  S
N346        C347   1.365       .  A
C347        N348   1.392       .  A
C347        C537   1.497       .  S
C349        N350   1.405       .  A
C349        N354   1.365       .  A
C349        C551   1.515       .  S
N350        C351   1.401       .  A
C351        N352   1.356       .  A
C351        C792   1.504       .  S
N352        C353   1.335       .  A
C353        N354   1.350       .  A
C353        C379   1.479       .  S
C355        N356   1.353       .  A
C355        N360   1.386       .  A
C355        C512   1.476       .  S
N356        C357   1.343       .  A
C357        N358   1.324       .  A
C357        C380   1.412       .  S
N358        C359   1.336       .  A
C359        N360   1.381       .  A
C359        C539   1.461       .  S
C361        N362   1.354       .  A
C361        N366   1.380       .  A
C361        C509   1.501       .  S
N362        C363   1.354       .  A
C363        N364   1.344       .  A
C363        C377   1.446   1_554  S
N364        C365   1.350       .  A
C365        N366   1.386       .  A
C365        C790   1.474       .  S
O367       Ni375   1.869       .  S
O367        C377   1.267       .  A
O368       Ni375   1.817       .  S
O368        C378   1.269       .  A
O369       Ni375   1.851       .  S
O369        C379   1.274       .  A
O370       Ni375   1.869       .  S
O370        C380   1.269   1_556  A
O371       Ni376   1.899   1_554  S
O371        C380   1.280       .  A
O372       Ni376   1.926       .  S
O372        C379   1.279       .  A
O373       Ni376   1.941       .  S
O373        C378   1.281       .  A
O374       Ni376   1.931       .  S
O374        C377   1.289       .  A
Ni375      Ni376   2.382       .  S
C381        N382   1.363       .  A
C381        N386   1.399       .  A
C381        C469   1.500       .  S
N382        C383   1.346       .  A
C383        N384   1.367       .  A
C383        C415   1.496       .  S
N384        C385   1.372       .  A
C385        N386   1.402       .  A
C385        C510   1.529       .  S
C387        N388   1.396       .  A
C387        N392   1.360       .  A
C387        C722   1.498       .  S
N388        C389   1.395       .  A
C389        N390   1.363       .  A
C389        C511   1.520       .  S
N390        C391   1.354       .  A
C391        N392   1.347       .  A
C391        C417   1.477       .  S
C393        N394   1.352       .  A
C393        N398   1.380       .  A
C393        C468   1.474       .  S
N394        C395   1.349       .  A
C395        N396   1.353       .  A
C395        C418   1.442       .  S
N396        C397   1.355       .  A
C397        N398   1.379       .  A
C397        C524   1.478       .  S
C399        N400   1.375       .  A
C399        N404   1.342       .  A
C399        C525   1.461       .  S
N400        C401   1.379       .  A
C401        N402   1.353       .  A
C401        C720   1.459       .  S
N402        C403   1.340       .  A
C403        N404   1.337       .  A
C403        C416   1.436   1_455  S
O405       Ni413   1.969       .  S
O405        C415   1.284       .  A
O406       Ni413   1.936       .  S
O406        C416   1.291       .  A
O407       Ni413   1.910       .  S
O407        C417   1.277       .  A
O408       Ni413   1.922       .  S
O408        C418   1.286   1_655  A
O409       Ni414   1.888       .  S
O409        C418   1.272   1_655  A
O410       Ni414   1.885       .  S
O410        C417   1.278       .  A
O411       Ni414   1.860       .  S
O411        C416   1.262       .  A
O412       Ni414   1.801       .  S
O412        C415   1.261       .  A
Ni413      Ni414   2.364       .  S
C419        N420   1.354       .  A
C419        N424   1.381       .  A
C419        C467   1.484       .  S
N420        C421   1.336       .  A
C421        N422   1.343       .  A
C421        C456   1.437       .  S
N422        C423   1.347       .  A
C423        N424   1.383       .  A
C423        C483   1.477       .  S
C425        N426   1.359       .  A
C425        N430   1.383       .  A
C425        C565   1.492       .  S
N426        C427   1.333       .  A
C427        N428   1.358       .  A
C427        C454   1.471       .  S
N428        C429   1.364       .  A
C429        N430   1.388       .  A
C429        C481   1.495       .  S
C431        N432   1.390       .  A
C431        N436   1.349       .  A
C431        C496   1.484       .  S
N432        C433   1.387       .  A
C433        N434   1.355       .  A
C433        C470   1.501       .  S
N434        C435   1.331       .  A
C435        N436   1.339       .  A
C435        C453   1.435       .  S
C437        N438   1.365       .  A
C437        N442   1.391       .  A
C437        C498   1.502       .  S
N438        C439   1.356       .  A
C439        N440   1.336       .  A
C439        C455   1.476       .  S
N440        C441   1.361       .  A
C441        N442   1.387       .  A
C441        C567   1.498       .  S
O443       Ni451   1.925       .  S
O443        C453   1.281       .  A
O444       Ni451   1.949   1_655  S
O444        C454   1.288       .  A
O445       Ni451   1.951       .  S
O445        C455   1.287       .  A
O446       Ni451   1.924   1_655  S
O446        C456   1.280       .  A
O447       Ni452   1.863   1_655  S
O447        C456   1.274       .  A
O448       Ni452   1.862       .  S
O448        C455   1.273       .  A
O449       Ni452   1.855   1_655  S
O449        C454   1.272       .  A
O450       Ni452   1.856       .  S
O450        C453   1.272       .  A
Ni451      Ni452   2.396       .  S
O457       Ni465   1.891       .  S
O457        C467   1.279       .  A
O458       Ni465   1.875   1_455  S
O458        C468   1.269       .  A
O459       Ni465   1.913       .  S
O459        C469   1.278       .  A
O460       Ni465   1.866   1_455  S
O460        C470   1.278       .  A
O461       Ni466   1.991   1_455  S
O461        C470   1.292       .  A
O462       Ni466   1.986       .  S
O462        C469   1.293       .  A
O463       Ni466   1.979   1_455  S
O463        C468   1.294       .  A
O464       Ni466   1.968       .  S
O464        C467   1.288       .  A
Ni465      Ni466   2.347       .  S
O471       Ni479   1.948       .  S
O471        C481   1.284       .  A
O472       Ni479   1.930       .  S
O472        C482   1.283       .  A
O473       Ni479   1.942       .  S
O473        C483   1.285       .  A
O474       Ni479   1.942       .  S
O474        C484   1.286       .  A
O475       Ni480   1.943       .  S
O475        C484   1.283       .  A
O476       Ni480   1.929       .  S
O476        C483   1.282       .  A
O477       Ni480   1.934       .  S
O477        C482   1.283       .  A
O478       Ni480   1.939       .  S
O478        C481   1.287       .  A
Ni479      Ni480   2.383       .  S
O485       Ni493   1.970       .  S
O485        C495   1.289       .  A
O486       Ni493   1.969       .  S
O486        C496   1.290       .  A
O487       Ni493   1.969       .  S
O487        C497   1.290       .  A
O488       Ni493   1.969       .  S
O488        C498   1.288       .  A
O489       Ni494   1.927       .  S
O489        C498   1.284       .  A
O490       Ni494   1.915       .  S
O490        C497   1.281       .  A
O491       Ni494   1.911       .  S
O491        C496   1.279       .  A
O492       Ni494   1.924       .  S
O492        C495   1.283       .  A
Ni493      Ni494   2.378       .  S
O499       Ni507   1.959       .  S
O499        C509   1.289       .  A
O500       Ni507   1.964       .  S
O500        C510   1.292       .  A
O501       Ni507   1.937       .  S
O501        C511   1.286       .  A
O502       Ni507   1.919       .  S
O502        C512   1.278       .  A
O503       Ni508   1.949       .  S
O503        C512   1.288       .  A
O504       Ni508   1.978       .  S
O504        C511   1.291       .  A
O505       Ni508   1.966       .  S
O505        C510   1.289       .  A
O506       Ni508   1.942       .  S
O506        C509   1.284       .  A
Ni507      Ni508   2.376       .  S
O513       Ni521   1.894       .  S
O513        C523   1.279       .  A
O514       Ni521   1.870       .  S
O514        C524   1.268       .  A
O515       Ni521   1.912       .  S
O515        C525   1.283       .  A
O516       Ni521   1.891       .  S
O516        C526   1.276       .  A
O517       Ni522   1.945       .  S
O517        C526   1.284       .  A
O518       Ni522   1.924       .  S
O518        C525   1.278       .  A
O519       Ni522   1.986       .  S
O519        C524   1.297       .  A
O520       Ni522   1.979       .  S
O520        C523   1.291       .  A
Ni521      Ni522   2.383       .  S
O527       Ni535   1.897   1_556  S
O527        C537   1.281       .  A
O528       Ni535   1.929       .  S
O528        C538   1.281       .  A
O529       Ni535   1.920       .  S
O529        C539   1.282       .  A
O530       Ni535   1.954   1_556  S
O530        C540   1.288       .  A
O531       Ni536   1.936       .  S
O531        C540   1.288       .  A
O532       Ni536   1.937   1_554  S
O532        C539   1.282       .  A
O533       Ni536   1.982   1_554  S
O533        C538   1.296       .  A
O534       Ni536   1.969       .  S
O534        C537   1.288       .  A
Ni535      Ni536   2.376   1_554  S
O541       Ni549   1.931       .  S
O541        C551   1.289       .  A
O542       Ni549   1.939       .  S
O542        C552   1.288       .  A
O543       Ni549   1.903       .  S
O543        C553   1.277       .  A
O544       Ni549   1.898       .  S
O544        C554   1.278       .  A
O545       Ni550   1.998       .  S
O545        C554   1.297       .  A
O546       Ni550   1.998       .  S
O546        C553   1.298       .  A
O547       Ni550   1.975       .  S
O547        C552   1.290       .  A
O548       Ni550   1.971       .  S
O548        C551   1.287       .  A
Ni549      Ni550   2.373       .  S
O555       Ni563   1.865   1_655  S
O555        C565   1.278       .  A
O556       Ni563   1.878       .  S
O556        C566   1.268       .  A
O557       Ni563   1.855       .  S
O557        C567   1.274       .  A
O558       Ni563   1.922   1_655  S
O558        C568   1.277       .  A
O559       Ni564   1.985   1_655  S
O559        C568   1.294       .  A
O560       Ni564   1.996       .  S
O560        C567   1.293       .  A
O561       Ni564   1.982       .  S
O561        C566   1.294       .  A
O562       Ni564   1.979   1_655  S
O562        C565   1.290       .  A
Ni563      Ni564   2.332       .  S
O569       Ni577   1.903       .  S
O569        C579   1.279       .  A
O570       Ni577   1.879       .  S
O570        C580   1.269       .  A
O571       Ni577   1.901       .  S
O571        C581   1.278       .  A
O572       Ni577   1.923       .  S
O572        C582   1.285       .  A
O573       Ni578   1.914       .  S
O573        C582   1.276       .  A
O574       Ni578   1.931       .  S
O574        C581   1.281       .  A
O575       Ni578   1.980       .  S
O575        C580   1.296       .  A
O576       Ni578   1.974       .  S
O576        C579   1.290       .  A
Ni577      Ni578   2.385       .  S
O583       Ni591   1.901       .  S
O583        C593   1.276       .  A
O584       Ni591   1.903   1_556  S
O584        C594   1.278       .  A
O585       Ni591   1.910   1_556  S
O585        C595   1.280       .  A
O586       Ni591   1.903       .  S
O586        C596   1.277       .  A
O587       Ni592   1.949       .  S
O587        C596   1.287       .  A
O588       Ni592   1.936   1_556  S
O588        C595   1.282       .  A
O589       Ni592   1.934   1_556  S
O589        C594   1.282       .  A
O590       Ni592   1.948       .  S
O590        C593   1.287       .  A
Ni591      Ni592   2.389       .  S
O597       Ni605   1.905       .  S
O597        C607   1.279       .  A
O598       Ni605   1.878       .  S
O598        C608   1.270       .  A
O599       Ni605   1.921       .  S
O599        C609   1.283       .  A
O600       Ni605   1.898       .  S
O600        C610   1.277       .  A
O601       Ni606   1.929       .  S
O601        C610   1.281       .  A
O602       Ni606   1.915       .  S
O602        C609   1.278       .  A
O603       Ni606   1.976       .  S
O603        C608   1.294       .  A
O604       Ni606   1.970       .  S
O604        C607   1.289       .  A
Ni605      Ni606   2.384       .  S
O611       Ni619   1.897       .  S
O611        C621   1.280       .  A
O612       Ni619   1.871       .  S
O612        C622   1.268       .  A
O613       Ni619   1.896       .  S
O613        C623   1.278       .  A
O614       Ni619   1.922       .  S
O614        C624   1.285       .  A
O615       Ni620   1.922       .  S
O615        C624   1.278       .  A
O616       Ni620   1.938       .  S
O616        C623   1.282       .  A
O617       Ni620   1.978       .  S
O617        C622   1.295       .  A
O618       Ni620   1.980       .  S
O618        C621   1.291       .  A
Ni619      Ni620   2.384       .  S
O625       Ni633   1.879   1_565  S
O625        C635   1.278       .  A
O626       Ni633   1.869       .  S
O626        C636   1.266       .  A
O627       Ni633   1.924   1_565  S
O627        C637   1.276       .  A
O628       Ni633   1.853       .  S
O628        C638   1.276       .  A
O629       Ni634   1.997       .  S
O629        C638   1.293       .  A
O630       Ni634   1.980   1_565  S
O630        C637   1.292       .  A
O631       Ni634   1.980       .  S
O631        C636   1.293       .  A
O632       Ni634   1.964   1_565  S
O632        C635   1.288       .  A
Ni633      Ni634   2.347       .  S
O639       Ni647   1.924       .  S
O639        C649   1.288       .  A
O640       Ni647   1.934       .  S
O640        C650   1.286       .  A
O641       Ni647   1.899       .  S
O641        C651   1.278       .  A
O642       Ni647   1.901       .  S
O642        C652   1.277       .  A
O643       Ni648   1.990       .  S
O643        C652   1.296       .  A
O644       Ni648   1.993       .  S
O644        C651   1.296       .  A
O645       Ni648   1.979       .  S
O645        C650   1.292       .  A
O646       Ni648   1.977       .  S
O646        C649   1.289       .  A
Ni647      Ni648   2.373       .  S
O653       Ni661   1.972       .  S
O653        C663   1.289       .  A
O654       Ni661   1.982   1_554  S
O654        C664   1.296       .  A
O655       Ni661   1.932   1_554  S
O655        C665   1.281       .  A
O656       Ni661   1.932       .  S
O656        C666   1.287       .  A
O657       Ni662   1.951   1_556  S
O657        C666   1.287       .  A
O658       Ni662   1.915       .  S
O658        C665   1.281       .  A
O659       Ni662   1.916       .  S
O659        C664   1.279       .  A
O660       Ni662   1.891   1_556  S
O660        C663   1.279       .  A
Ni661      Ni662   2.378   1_556  S
O667       Ni675   1.954       .  S
O667        C677   1.287       .  A
O668       Ni675   1.962       .  S
O668        C678   1.291       .  A
O669       Ni675   1.915       .  S
O669        C679   1.278       .  A
O670       Ni675   1.936       .  S
O670        C680   1.286       .  A
O671       Ni676   1.971       .  S
O671        C680   1.290       .  A
O672       Ni676   1.940       .  S
O672        C679   1.285       .  A
O673       Ni676   1.969       .  S
O673        C678   1.291       .  A
O674       Ni676   1.944       .  S
O674        C677   1.285       .  A
Ni675      Ni676   2.377       .  S
O681       Ni689   1.884       .  S
O681        C691   1.279       .  A
O682       Ni689   1.861   1_545  S
O682        C692   1.265       .  A
O683       Ni689   1.847   1_545  S
O683        C693   1.276       .  A
O684       Ni689   1.909       .  S
O684        C694   1.277       .  A
O685       Ni690   1.984       .  S
O685        C694   1.293       .  A
O686       Ni690   2.000   1_545  S
O686        C693   1.293       .  A
O687       Ni690   1.982   1_545  S
O687        C692   1.294       .  A
O688       Ni690   1.970       .  S
O688        C691   1.288       .  A
Ni689      Ni690   2.351       .  S
O695       Ni703   1.939       .  S
O695        C705   1.285       .  A
O696       Ni703   1.937       .  S
O696        C706   1.283       .  A
O697       Ni703   1.931       .  S
O697        C707   1.284       .  A
O698       Ni703   1.948       .  S
O698        C708   1.285       .  A
O699       Ni704   1.937       .  S
O699        C708   1.284       .  A
O700       Ni704   1.940       .  S
O700        C707   1.283       .  A
O701       Ni704   1.934       .  S
O701        C706   1.284       .  A
O702       Ni704   1.945       .  S
O702        C705   1.284       .  A
Ni703      Ni704   2.383       .  S
O709       Ni717   1.888   1_655  S
O709        C719   1.280       .  A
O710       Ni717   1.881       .  S
O710        C720   1.267       .  A
O711       Ni717   1.901       .  S
O711        C721   1.276       .  A
O712       Ni717   1.951   1_655  S
O712        C722   1.292       .  A
O713       Ni718   1.943       .  S
O713        C722   1.281       .  A
O714       Ni718   1.963   1_455  S
O714        C721   1.290       .  A
O715       Ni718   1.965   1_455  S
O715        C720   1.293       .  A
O716       Ni718   1.976       .  S
O716        C719   1.289       .  A
Ni717      Ni718   2.380   1_455  S
O723       Ni731   1.919       .  S
O723        C733   1.282       .  A
O724       Ni731   1.915       .  S
O724        C734   1.282       .  A
O725       Ni731   1.926       .  S
O725        C735   1.285       .  A
O726       Ni731   1.927       .  S
O726        C736   1.284       .  A
O727       Ni732   1.977       .  S
O727        C736   1.292       .  A
O728       Ni732   1.982       .  S
O728        C735   1.292       .  A
O729       Ni732   1.974       .  S
O729        C734   1.292       .  A
O730       Ni732   1.975       .  S
O730        C733   1.292       .  A
Ni731      Ni732   2.375       .  S
O737       Ni745   1.890   1_565  S
O737        C747   1.279       .  A
O738       Ni745   1.881       .  S
O738        C748   1.268       .  A
O739       Ni745   1.949   1_565  S
O739        C749   1.292       .  A
O740       Ni745   1.899       .  S
O740        C750   1.276       .  A
O741       Ni746   1.959   1_545  S
O741        C750   1.288       .  A
O742       Ni746   1.940       .  S
O742        C749   1.280       .  A
O743       Ni746   1.963   1_545  S
O743        C748   1.293       .  A
O744       Ni746   1.972       .  S
O744        C747   1.288       .  A
Ni745      Ni746   2.381   1_545  S
O751       Ni759   1.914   1_655  S
O751        C761   1.285       .  A
O752       Ni759   1.887       .  S
O752        C762   1.271       .  A
O753       Ni759   1.927   1_655  S
O753        C763   1.287       .  A
O754       Ni759   1.887       .  S
O754        C764   1.271       .  A
O755       Ni760   1.969       .  S
O755        C764   1.293       .  A
O756       Ni760   1.958   1_655  S
O756        C763   1.285       .  A
O757       Ni760   1.954       .  S
O757        C762   1.289       .  A
O758       Ni760   1.945   1_655  S
O758        C761   1.281       .  A
Ni759      Ni760   2.382       .  S
O765       Ni773   1.921   1_565  S
O765        C775   1.287       .  A
O766       Ni773   1.888       .  S
O766        C776   1.271       .  A
O767       Ni773   1.894       .  S
O767        C777   1.271       .  A
O768       Ni773   1.917   1_565  S
O768        C778   1.285       .  A
O769       Ni774   1.951       .  S
O769        C778   1.284       .  A
O770       Ni774   1.969   1_545  S
O770        C777   1.293       .  A
O771       Ni774   1.957   1_545  S
O771        C776   1.290       .  A
O772       Ni774   1.950       .  S
O772        C775   1.283       .  A
Ni773      Ni774   2.383   1_545  S
O779       Ni787   1.923       .  S
O779        C789   1.286       .  A
O780       Ni787   1.877   1_554  S
O780        C790   1.271       .  A
O781       Ni787   1.881   1_554  S
O781        C791   1.272       .  A
O782       Ni787   1.931       .  S
O782        C792   1.288       .  A
O783       Ni788   1.966       .  S
O783        C792   1.285       .  A
O784       Ni788   1.974   1_554  S
O784        C791   1.293       .  A
O785       Ni788   1.978   1_554  S
O785        C790   1.295       .  A
O786       Ni788   1.971       .  S
O786        C789   1.287       .  A
Ni787      Ni788   2.377       .  S
