geometry optimzed in LAMMPS
_audit_creation_date              2020-11-30 
_audit_creation_method            'lammps2cif' 
_symmetry_space_group_name_H-M    'P1' 
_symmetry_Int_Tables_number       1 
_symmetry_cell_setting            triclinic 
loop_ 
_symmetry_equiv_pos_as_xyz 
  x,y,z 
_cell_length_a                    29.69938449 
_cell_length_b                    29.888778464460273 
_cell_length_c                    62.523375926943295 
_cell_angle_alpha                 89.96618893699713 
_cell_angle_beta                  89.97438347892736 
_cell_angle_gamma                 120.11058852175373 
loop_ 
_atom_site_label 
_atom_site_type_symbol 
_atom_site_fract_x 
_atom_site_fract_y 
_atom_site_fract_z 
_atom_site_charge 
O1          O  0.07898488  0.28412529  0.33107721    -0.86700
C2          C  0.18157933  0.36689337  0.28328188     0.89400
Mg3        Mg  0.07300766  0.31782714  0.36075658     1.58100
O4          O  0.21107251  0.28552455  0.31382988    -0.86400
O5          O  0.08780483  0.22050754  0.31894697    -0.73700
C6          C  0.31227736  0.44921643  0.39843270     0.94400
O7          O  0.12324576  0.40287128  0.31880586    -0.73600
O8          O  0.27031283  0.45091000  0.39860300    -0.81100
Mg9        Mg  0.07824371  0.32346451  0.30223073     1.58000
C10         C  0.36224171  0.34732667  0.33575116     0.94300
O11         O  0.02954071  0.25004342  0.28206324    -0.79300
H12         H  0.19234813  0.21555278  0.32492000    -0.04700
C13         C  0.28520684  0.43819107  0.33416757     0.89300
O14         O  0.12130814  0.28951491  0.37867934    -0.73800
O15         O  0.14928784  0.32699118  0.29244643    -0.86600
O16         O  0.33638464  0.33829288  0.31860175    -0.79400
C17         C  0.25243517  0.29081120  0.25998645     0.94400
C18         C  0.03876938  0.22452731  0.26815009     0.94300
Mg19       Mg  0.27304018  0.35251035  0.36323816     1.58000
O20         O  0.32228259  0.42553270  0.38390674    -0.79300
O21         O  0.22847840  0.27328685  0.34663407    -0.73600
O22         O  0.20360402  0.27181916  0.26265818    -0.79400
O23         O  0.00233065  0.31844190  0.31217471    -0.81100
O24         O  0.14783079  0.40159021  0.40274362    -0.79400
C25         C  0.21030241  0.25654091  0.32810692     0.88700
O26         O  0.20206565  0.34853202  0.37287227    -0.86600
O27         O  0.27248672  0.39203779  0.33425932    -0.86700
O28         O  0.26456144  0.45576432  0.34693322    -0.73700
Mg29       Mg  0.14755375  0.25375938  0.29150742     1.58000
O30         O  0.28559149  0.32104744  0.27357506    -0.81100
H31         H  0.03793480  0.21241780  0.34285273    -0.04800
O32         O  0.14079885  0.39058954  0.35160181    -0.86400
H33         H  0.16003753  0.46067477  0.34045904    -0.04700
H34         H  0.18278458  0.28789537  0.39197109    -0.04800
C35         C  0.14175903  0.41964385  0.33730411     0.88700
C36         C  0.06666550  0.23809885  0.33141925     0.89300
C37         C  0.16963965  0.30835341  0.38182044     0.89300
H38         H  0.31403275  0.46404792  0.32280465    -0.04800
O39         O  0.22997041  0.38581422  0.28630893    -0.73800
Mg40       Mg  0.20424470  0.42160853  0.37423592     1.58000
H41         H  0.16827373  0.38703321  0.27302140    -0.04800
C42         C  0.98786615  0.32802212  0.32985979     0.94300
O43         O  0.06593401  0.35370659  0.39145147    -0.81100
C44         C  0.09905635  0.38286608  0.40522515     0.94400
O45         O  0.08075980  0.22294380  0.26785782    -0.81100
Mg46       Mg  0.27842583  0.35792964  0.30441354     1.58200
O47         O  0.01418744  0.33733598  0.34691091    -0.79400
O48         O  0.34809838  0.35742186  0.35336189    -0.81100
C49         C  0.35195363  0.15369732  0.18718870     0.04000
C50         C  0.34765289  0.19860461  0.18492338     0.03900
C51         C  0.36827282  0.22947832  0.16656123    -0.16600
C52         C  0.39359639  0.21686569  0.15074453     0.04000
C53         C  0.39969584  0.17346357  0.15333293     0.03900
C54         C  0.37844643  0.14191384  0.17145145    -0.16600
H55         H  0.38222967  0.10785174  0.17324684     0.06000
H56         H  0.36442666  0.26345233  0.16451480     0.06000
C57         C  0.84153700  0.12051776  0.17995053     0.04000
C58         C  0.88814048  0.16814224  0.18178862     0.03900
C59         C  0.90216047  0.20578895  0.16574807    -0.16600
C60         C  0.87061144  0.19636303  0.14759956     0.04000
C61         C  0.82470101  0.14758280  0.14533785     0.03900
C62         C  0.81049772  0.11037406  0.16166288    -0.16600
H63         H  0.77490662  0.07336524  0.16017407     0.06000
H64         H  0.93769203  0.24276529  0.16747022     0.06000
O65         O  0.27140956  0.89054505  0.33883990    -0.86700
C66         C  0.14881066  0.83572171  0.38061381     0.89400
Mg67       Mg  0.27859644  0.93764040  0.31149271     1.58100
O68         O  0.14496679  0.74090632  0.34593958    -0.86400
O69         O  0.26797880  0.81723711  0.34635265    -0.73700
C70         C  0.04660316  0.81140245  0.26344030     0.94400
O71         O  0.20526372  0.94409028  0.35252286    -0.73600
O72         O  0.08395804  0.85759339  0.26597970    -0.81100
Mg73       Mg  0.25482858  0.91458742  0.36895272     1.58000
C74         C  0.00333695  0.64189069  0.31475171     0.94300
O75         O  0.30598389  0.89294541  0.38879228    -0.79300
H76         H  0.17740452  0.70169196  0.33395754    -0.04700
C77         C  0.05821362  0.80628151  0.32699477     0.89300
O78         O  0.24447012  0.86657527  0.28933845    -0.73800
O79         O  0.18806072  0.83818162  0.37265680    -0.86600
O80         O  0.02203652  0.65459102  0.33357784    -0.79400
C81         C  0.09329738  0.68867362  0.39775769     0.94400
C82         C  0.30205346  0.85522799  0.39971151     0.94300
Mg83       Mg  0.09270960  0.75278081  0.29527609     1.58000
O84         O  0.04180046  0.77398179  0.27484918    -0.79300
O85         O  0.14170878  0.72292535  0.31181914    -0.73600
O86         O  0.14123278  0.72372310  0.39681748    -0.79400
O87         O  0.32586502  0.99542631  0.36565363    -0.81100
O88         O  0.20691429  0.94422389  0.26751418    -0.79400
C89         C  0.15511734  0.72060321  0.33089394     0.88700
O90         O  0.15969621  0.82914861  0.29145624    -0.86600
O91         O  0.07613067  0.77698500  0.32539694    -0.86700
O92         O  0.07853856  0.84945753  0.31727987    -0.73700
Mg93       Mg  0.20245579  0.77407486  0.37102562     1.58000
O94         O  0.06140097  0.68136652  0.38269008    -0.81100
H95         H  0.32138452  0.87135580  0.32633110    -0.04800
O96         O  0.20191293  0.92613541  0.31839119    -0.86400
H97         H  0.16885137  0.96469260  0.33045504    -0.04700
H98         H  0.19510636  0.80342048  0.27195324    -0.04800
C99         C  0.19150666  0.94614796  0.33347147     0.88700
C100        C  0.28864686  0.86073025  0.33687479     0.89300
C101        C  0.19919085  0.83194707  0.28360104     0.89300
H102        H  0.02508283  0.79542626  0.33733462    -0.04800
O103        O  0.10336083  0.80132865  0.37498784    -0.73800
Mg104      Mg  0.14491630  0.89300102  0.29291775     1.58000
H105        H  0.15328038  0.86445591  0.39222945    -0.04800
C106        C  0.34385185  0.02669406  0.34998448     0.94300
O107        O  0.28594315  0.98653708  0.28239532    -0.81100
C108        C  0.25473045  0.97975245  0.26717019     0.94400
O109        O  0.26447257  0.80913503  0.39735566    -0.81100
Mg110      Mg  0.06883710  0.73013308  0.35306077     1.58200
O111        O  0.32558388  0.01368892  0.33109074    -0.79400
O112        O  0.02143975  0.67275098  0.29896488    -0.81100
O113        O  0.63381519  0.74077101  0.34256192    -0.86700
C114        C  0.71114001  0.86301103  0.38320100     0.89400
Mg115      Mg  0.66912123  0.73490235  0.31354289     1.58100
O116        O  0.61364690  0.86697010  0.35263413    -0.86400
O117        O  0.56534236  0.74448221  0.35288482    -0.73700
C118        C  0.76664234  0.96404558  0.26572427     0.94400
O119        O  0.75684761  0.80516157  0.35266789    -0.73600
O120        O  0.77651795  0.92759433  0.26818683    -0.81100
Mg121      Mg  0.68026839  0.75666015  0.37110308     1.58000
C122        C  0.64806365  0.00665689  0.32265221     0.94300
O123        O  0.61109855  0.70665505  0.39307735    -0.79300
H124        H  0.53933488  0.83544250  0.34356538    -0.04700
C125        C  0.76197733  0.95467667  0.32963816     0.89300
O126        O  0.62810202  0.76910730  0.29389540    -0.73800
O127        O  0.67247739  0.82378118  0.37634261    -0.86600
O128        O  0.64653955  0.98872894  0.34134233    -0.79400
C129        C  0.62285204  0.91792180  0.40506714     0.94400
C130        C  0.58056272  0.71235786  0.40558275     0.94300
Mg131      Mg  0.66745772  0.91944463  0.30077122     1.58000
O132        O  0.73547247  0.96959872  0.27793488    -0.79300
O133        O  0.59159841  0.87099254  0.31963099    -0.73600
O134        O  0.61064806  0.87062737  0.40379798    -0.79400
O135        O  0.68797529  0.68531504  0.36563882    -0.81100
O136        O  0.73916085  0.80808548  0.26886163    -0.79400
C137        C  0.57990091  0.85733920  0.33900487     0.88700
O138        O  0.67626891  0.85331805  0.29578961    -0.86600
O139        O  0.71438284  0.93665471  0.32932671    -0.86700
O140        O  0.78346177  0.93401882  0.31920082    -0.73700
Mg141      Mg  0.59381966  0.81016494  0.37756725     1.58000
O142        O  0.64400433  0.94968461  0.38970310    -0.81100
H143        H  0.56219796  0.69089231  0.33206744    -0.04800
O144        O  0.73508998  0.81099094  0.31983748    -0.86400
H145        H  0.80935120  0.84172387  0.32889241    -0.04700
H146        H  0.61143109  0.81847569  0.27819017    -0.04800
C147        C  0.76875009  0.81985999  0.33340717     0.88700
C148        C  0.58633101  0.72362083  0.34221082     0.89300
C149        C  0.63799208  0.81419695  0.28866550     0.89300
H150        H  0.78574488  0.98789276  0.33960782    -0.04800
O151        O  0.72094814  0.90811418  0.37796545    -0.73800
Mg152      Mg  0.75520192  0.86796267  0.29482563     1.58000
H153        H  0.73805830  0.85881888  0.39348551    -0.04800
C154        C  0.69895112  0.66847167  0.34892444     0.94300
O155        O  0.70638471  0.72906598  0.28291820    -0.81100
C156        C  0.72795939  0.76115266  0.26773062     0.94400
O157        O  0.57206604  0.74989880  0.40391813    -0.81100
Mg158      Mg  0.67985641  0.94280580  0.35856309     1.58200
O159        O  0.70191732  0.68807599  0.33048426    -0.79400
O160        O  0.65850128  0.98918918  0.30603554    -0.81100
C161        C  0.87576970  0.70428867  0.18334578     0.04000
C162        C  0.82499656  0.69653031  0.18497699     0.03900
C163        C  0.78844797  0.66969319  0.16899822    -0.16600
C164        C  0.80101959  0.64936588  0.15141185     0.04000
C165        C  0.85104490  0.65519965  0.14978185     0.03900
C166        C  0.88837634  0.68309214  0.16573871    -0.16600
H167        H  0.92706882  0.68813827  0.16449117     0.06000
H168        H  0.74965620  0.66453151  0.17027524     0.06000
O169        O  0.45722764  0.05558524  0.00621324    -0.86700
C170        C  0.50333229  0.97929687  0.04805992     0.89400
Mg171      Mg  0.40650975  0.01856814  0.97905161     1.58100
O172        O  0.60195360  0.06422420  0.01253797    -0.86400
O173        O  0.53433422  0.12078078  0.01401693    -0.73700
C174        C  0.51131946  0.89384235  0.93133600     0.94400
O175        O  0.39246280  0.93601441  0.02043930    -0.73600
O176        O  0.46696041  0.88994514  0.93384090    -0.81100
Mg177      Mg  0.43111646  0.01579573  0.03656208     1.58000
C178        C  0.68777437  0.00546203  0.98024537     0.94300
O179        O  0.46009366  0.08911426  0.05676745    -0.79300
H180        H  0.64683755  0.13477512  0.00018184    -0.04700
C181        C  0.52003492  0.91139640  0.99476365     0.89300
O182        O  0.47666491  0.04852963  0.95626007    -0.73800
O183        O  0.50435315  0.01709336  0.03959581    -0.86600
O184        O  0.67831427  0.01401354  0.99927066    -0.79400
C185        C  0.65473950  0.06135976  0.06339524     0.94400
C186        C  0.49880057  0.11640848  0.06882116     0.94300
Mg187      Mg  0.57991303  0.99668752  0.96239969     1.58000
O188        O  0.55024280  0.92280338  0.94295862    -0.79300
O189        O  0.61884768  0.07687581  0.97828510    -0.73600
O190        O  0.62156249  0.07658270  0.06311045    -0.79400
O191        O  0.35472331  0.01565732  0.03388661    -0.81100
O192        O  0.38918842  0.93561191  0.93556432    -0.79400
C193        C  0.62391698  0.09360771  0.99731208     0.88700
O194        O  0.50675620  0.99549251  0.95921254    -0.86600
O195        O  0.55385482  0.95739589  0.99277070    -0.86700
O196        O  0.47638664  0.89234482  0.98526721    -0.73700
Mg197      Mg  0.57354589  0.09243192  0.03812870     1.58000
O198        O  0.65836126  0.03463667  0.04832168    -0.81100
H199        H  0.48332921  0.12634142  0.99410421    -0.04800
O200        O  0.40924284  0.94896445  0.98619529    -0.86400
H201        H  0.36425417  0.87834769  0.99845143    -0.04700
H202        H  0.53738109  0.05508716  0.93881995    -0.04800
C203        C  0.38723773  0.91948308  0.00138252     0.88700
C204        C  0.49079498  0.10172559  0.00443464     0.89300
C205        C  0.50808129  0.03348544  0.95078656     0.89300
H206        H  0.52735361  0.88692299  0.00524563    -0.04800
O207        O  0.53502001  0.96458322  0.04261071    -0.73800
Mg208      Mg  0.43725624  0.92014115  0.96088039     1.58000
H209        H  0.47416387  0.95765508  0.06006565    -0.04800
C210        C  0.32327559  0.00625870  0.01851419     0.94300
O211        O  0.35332218  0.97867066  0.95013008    -0.81100
C212        C  0.35648635  0.95147815  0.93511770     0.94400
O213        O  0.54321943  0.12073358  0.06580037    -0.81100
Mg214      Mg  0.60495703  0.99456519  0.01968504     1.58200
O215        O  0.33321875  0.99848527  0.99945046    -0.79400
O216        O  0.65615192  0.99620542  0.96495899    -0.81100
O217        O  0.55447447  0.59980136  0.00016735    -0.86700
C218        C  0.53006598  0.50021019  0.95100608     0.89400
Mg219      Mg  0.59212439  0.59980091  0.02961047     1.58100
O220        O  0.41961461  0.47443534  0.98138127    -0.86400
O221        O  0.48327835  0.59598727  0.98864781    -0.73700
C222        C  0.47312517  0.35806960  0.06178439     0.94400
O223        O  0.62434339  0.55047867  0.98631064    -0.73600
O224        O  0.51797639  0.39819874  0.06220376    -0.81100
Mg225      Mg  0.59382375  0.60012337  0.97104545     1.58000
C226        C  0.32037685  0.32508736  0.00067658     0.94300
O227        O  0.57351235  0.65387874  0.95205431    -0.79300
H228        H  0.37054621  0.49609793  0.99276044    -0.04700
C229        C  0.48994539  0.39138677  0.99909407     0.89300
O230        O  0.51403059  0.55332316  0.04694014    -0.73800
O231        O  0.52420667  0.53287171  0.96071227    -0.86600
O232        O  0.34045880  0.35160149  0.98393422    -0.79400
C233        C  0.38636612  0.44043246  0.92687964     0.94400
C234        C  0.53914943  0.64733638  0.93827006     0.94300
Mg235      Mg  0.41818391  0.40557313  0.02915844     1.58000
O236        O  0.43835534  0.35178283  0.04824933    -0.79300
O237        O  0.38803138  0.45546785  0.01386595    -0.73600
O238        O  0.41777853  0.48807478  0.93059935    -0.79400
O239        O  0.66742863  0.67101772  0.98170363    -0.81100
O240        O  0.59344031  0.51720539  0.06951336    -0.79400
C241        C  0.39151575  0.47575822  0.99564945     0.88700
O242        O  0.48794238  0.47266936  0.03944950    -0.86600
O243        O  0.45772365  0.40587587  0.00006512    -0.86700
O244        O  0.52904009  0.40972647  0.01145915    -0.73700
Mg245      Mg  0.45511935  0.53942023  0.96025610     1.58000
O246        O  0.37962461  0.40497119  0.93987808    -0.81100
H247        H  0.52660849  0.64220481  0.01310686    -0.04800
O248        O  0.59276030  0.53141748  0.01878786    -0.86400
H249        H  0.64201341  0.50998229  0.00741700    -0.04700
H250        H  0.44850771  0.49295247  0.05931834    -0.04800
C251        C  0.62092480  0.53020112  0.00452520     0.88700
C252        C  0.52220246  0.61422216  0.00110646     0.89300
C253        C  0.48226568  0.50538332  0.04920720     0.89300
H254        H  0.48539717  0.36332210  0.98710833    -0.04800
O255        O  0.49841516  0.45225651  0.95329457    -0.73800
Mg256      Mg  0.55702301  0.46618617  0.03983701     1.58000
H257        H  0.56390328  0.51270822  0.94093841    -0.04800
C258        C  0.69148752  0.68170308  0.99940430     0.94300
O259        O  0.63247257  0.60046511  0.06033026    -0.81100
C260        C  0.62489286  0.56474305  0.07334553     0.94400
O261        O  0.49433323  0.60716647  0.93776261    -0.81100
Mg262      Mg  0.42028966  0.40604179  0.97059374     1.58200
O263        O  0.67222315  0.65516495  0.01623998    -0.79400
O264        O  0.34406353  0.33491662  0.01846213    -0.81100
O265        O  0.04627253  0.44940241  0.99655932    -0.86700
C266        C  0.96495180  0.47885542  0.95188129     0.89400
Mg267      Mg  0.01405163  0.41553022  0.02745161     1.58100
O268        O  0.06293722  0.58646603  0.97975971    -0.86400
O269        O  0.11450240  0.51505499  0.98239414    -0.73700
C270        C  0.91239036  0.55133433  0.06736682     0.94400
O271        O  0.92412217  0.38715348  0.98820723    -0.73600
O272        O  0.90456321  0.50532884  0.06801873    -0.81100
Mg273      Mg  0.99907348  0.40981646  0.96903067     1.58000
C274        C  0.02468182  0.69566216  0.00199855     0.94300
O275        O  0.06644533  0.42305897  0.94599592    -0.79300
H276        H  0.13697583  0.63126809  0.98883891    -0.04700
C277        C  0.91429156  0.52943767  0.00426562     0.89300
O278        O  0.05497090  0.49468055  0.04394272    -0.73800
O279        O  0.00494285  0.48137023  0.95899383    -0.86600
O280        O  0.02921895  0.67435126  0.98525517    -0.79400
C281        C  0.05409863  0.62225096  0.92646200     0.94400
C282        C  0.09482729  0.45581316  0.93174953     0.94300
Mg283      Mg  0.00875968  0.59783041  0.03073144     1.58000
O284        O  0.94062623  0.58386611  0.05306513    -0.79300
O285        O  0.08411943  0.62058493  0.01181432    -0.73600
O286        O  0.06802627  0.58834664  0.92805510    -0.79400
O287        O  0.99434952  0.33469018  0.97962876    -0.81100
O288        O  0.94039736  0.41926218  0.07213459    -0.79400
C289        C  0.09628581  0.61366578  0.99308815     0.88700
O290        O  0.00300134  0.52628546  0.04085557    -0.86600
O291        O  0.96190065  0.55806875  0.00329382    -0.86700
O292        O  0.89380272  0.49175584  0.01725633    -0.73700
Mg293      Mg  0.08349731  0.54656461  0.95614498     1.58000
O294        O  0.02919754  0.62983297  0.94111138    -0.81100
H295        H  0.11854581  0.47057178  0.00603713    -0.04800
O296        O  0.94536826  0.42052758  0.02038743    -0.86400
H297        H  0.87133896  0.37580661  0.01130652    -0.04700
H298        H  0.06961720  0.56255454  0.05725711    -0.04800
C299        C  0.91202067  0.39354463  0.00702252     0.88700
C300        C  0.09391085  0.47751464  0.99543628     0.89300
C301        C  0.04308239  0.52906459  0.04799034     0.89300
H302        H  0.88959379  0.53601036  0.99354987    -0.04800
O303        O  0.95324686  0.51333579  0.95601250    -0.73800
Mg304      Mg  0.92469664  0.46066016  0.04375638     1.58000
H305        H  0.93833251  0.44551300  0.94256251    -0.04800
C306        C  0.98438463  0.31244409  0.99776345     0.94300
O307        O  0.97993988  0.37814073  0.05940053    -0.81100
C308        C  0.95492669  0.38581651  0.07402319     0.94400
O309        O  0.10321985  0.50205097  0.93149498    -0.81100
Mg310      Mg  0.99469187  0.59224006  0.97265055     1.58200
O311        O  0.98078248  0.33363883  0.01474719    -0.79400
O312        O  0.01344266  0.67326936  0.02011892    -0.81100
O313        O  0.26256425  0.05500339  0.66617205    -0.86700
C314        C  0.35564069  0.16575485  0.70897474     0.89400
Mg315      Mg  0.29030360  0.04784051  0.63527782     1.58100
O316        O  0.26387917  0.18745599  0.68229214    -0.86400
O317        O  0.20039686  0.06431517  0.68011191    -0.73700
C318        C  0.40964022  0.28425194  0.59332684     0.94400
O319        O  0.38549478  0.10586348  0.67299159    -0.73600
O320        O  0.41197862  0.24289108  0.59259361    -0.81100
Mg321      Mg  0.31090437  0.06139336  0.69317112     1.58000
C322        C  0.31364232  0.33479908  0.65861623     0.94300
O323        O  0.24346247  0.01404113  0.71690738    -0.79300
H324        H  0.19017914  0.16590980  0.67508558    -0.04700
C325        C  0.41071070  0.26309885  0.65606095     0.89300
O326        O  0.25471802  0.09182694  0.61893150    -0.73800
O327        O  0.31349799  0.13143491  0.70197738    -0.86600
O328        O  0.31079289  0.31124993  0.67588353    -0.79400
C329        C  0.28315714  0.23375302  0.73551731     0.94400
C330        C  0.21841424  0.02365845  0.73099634     0.94300
Mg331      Mg  0.31610178  0.24479377  0.63080718     1.58000
O332        O  0.38426108  0.29237473  0.60773552    -0.79300
O333        O  0.24114220  0.20064543  0.65066766    -0.73600
O334        O  0.26479973  0.18533026  0.73347521    -0.79400
O335        O  0.30900358  0.98772151  0.68412190    -0.81100
O336        O  0.36035241  0.11960892  0.58970504    -0.79400
C337        C  0.23022230  0.18433044  0.66978760     0.88700
O338        O  0.31261776  0.17408692  0.62152397    -0.86600
O339        O  0.36416133  0.24948964  0.65763149    -0.86700
O340        O  0.42634395  0.24116205  0.64309883    -0.73700
Mg341      Mg  0.23933037  0.12727713  0.70578336     1.58000
O342        O  0.30829621  0.26584816  0.72076369    -0.81100
H343        H  0.18826044  0.01120154  0.65725809    -0.04800
O344        O  0.36294367  0.11820850  0.64115674    -0.86400
H345        H  0.43672686  0.14078473  0.64866533    -0.04700
H346        H  0.24550941  0.14888745  0.60585097    -0.04800
C347        C  0.39657942  0.12201209  0.65384239     0.88700
C348        C  0.21606504  0.04177005  0.66749252     0.89300
C349        C  0.27040855  0.13902825  0.61484185     0.89300
H350        H  0.43861730  0.29356813  0.66630325    -0.04800
O351        O  0.37237682  0.21305973  0.70487874    -0.73800
Mg352      Mg  0.38688934  0.17838242  0.61739341     1.58000
H353        H  0.37971458  0.15507850  0.71811317    -0.04800
C354        C  0.31659089  0.97250084  0.66625700     0.94300
O355        O  0.31997602  0.03960808  0.60316733    -0.81100
C356        C  0.34372967  0.07131920  0.58810436     0.94400
O357        O  0.21485801  0.06425516  0.73058390    -0.81100
Mg358      Mg  0.33721196  0.25707823  0.68859429     1.58200
O359        O  0.31809736  0.99446868  0.64864150    -0.79400
O360        O  0.32002603  0.31967805  0.64048041    -0.81100
C361        C  0.16355015  0.36083266  0.84769468     0.04000
C362        C  0.21165679  0.36197276  0.84770542     0.03900
C363        C  0.22500551  0.34127760  0.83044930    -0.16600
C364        C  0.19150762  0.31911741  0.81304686     0.04000
C365        C  0.14314319  0.31743741  0.81261836     0.03900
C366        C  0.12957100  0.33851576  0.83005880    -0.16600
H367        H  0.09253932  0.33743354  0.82993690     0.06000
H368        H  0.26204030  0.34223180  0.83060653     0.06000
C369        C  0.13311323  0.81339756  0.85485925     0.04000
C370        C  0.17934635  0.86231683  0.85518483     0.03900
C371        C  0.18989039  0.89650765  0.83792529    -0.16600
C372        C  0.15484556  0.88308407  0.82076969     0.04000
C373        C  0.10766675  0.83571305  0.82113000     0.03900
C374        C  0.09734611  0.80112539  0.83805079    -0.16600
H375        H  0.06160452  0.76397272  0.83794413     0.06000
H376        H  0.22582889  0.93345477  0.83770477     0.06000
O377        O  0.91778867  0.21230015  0.66691979    -0.86700
C378        C  0.81903797  0.19334168  0.71571480     0.89400
Mg379      Mg  0.91329574  0.24240716  0.63594370     1.58100
O380        O  0.79774020  0.08028630  0.68898533    -0.86400
O381        O  0.92074509  0.14752299  0.68138660    -0.73700
C382        C  0.66573089  0.10922158  0.60568175     0.94400
O383        O  0.86461400  0.27971217  0.67715418    -0.73600
O384        O  0.70499470  0.15456350  0.60378309    -0.81100
Mg385      Mg  0.91896668  0.25691800  0.69435705     1.58000
C386        C  0.64380248  0.97158672  0.67271741     0.94300
O387        O  0.97679428  0.24491711  0.71556873    -0.79300
H388        H  0.82220362  0.03257832  0.67891434    -0.04700
C389        C  0.70483498  0.13855166  0.66781934     0.89300
O390        O  0.86814830  0.16129873  0.62135536    -0.73800
O391        O  0.85378624  0.18828753  0.70723828    -0.86600
O392        O  0.67278936  0.99494469  0.68856437    -0.79400
C393        C  0.76567289  0.05296039  0.74385036     0.94400
C394        C  0.97375619  0.21396159  0.73035115     0.94300
Mg395      Mg  0.72099349  0.06455195  0.64064100     1.58000
O396        O  0.66305185  0.07755091  0.62005645    -0.79300
O397        O  0.77603469  0.04219734  0.65766238    -0.73600
O398        O  0.81342857  0.08579759  0.74031666    -0.79400
O399        O  0.98854232  0.32864334  0.68060803    -0.81100
O400        O  0.82652645  0.23627894  0.59472104    -0.79400
C401        C  0.79939727  0.05079815  0.67554374     0.88700
O402        O  0.78591495  0.13333159  0.62777221    -0.86600
O403        O  0.72213302  0.10869771  0.66814857    -0.86700
O404        O  0.72043291  0.17461021  0.65411336    -0.73700
Mg405      Mg  0.86442503  0.12187491  0.71001901     1.58000
O406        O  0.72995802  0.04439633  0.73059552    -0.81100
H407        H  0.96440464  0.18738066  0.65570019    -0.04800
O408        O  0.84295275  0.24133152  0.64592945    -0.86400
H409        H  0.81918260  0.28979999  0.65568464    -0.04700
H410        H  0.80956993  0.09287159  0.61037673    -0.04800
C411        C  0.84158081  0.27122652  0.65921894     0.88700
C412        C  0.93583487  0.18310528  0.66748757     0.89300
C413        C  0.82034230  0.12789516  0.61921547     0.89300
H414        H  0.67658302  0.13453681  0.67971549    -0.04800
O415        O  0.77135197  0.15948453  0.71358861    -0.73800
Mg416      Mg  0.77601111  0.20021466  0.62525660     1.58000
H417        H  0.82940097  0.22830948  0.72452104    -0.04800
C418        C  0.99719115  0.34824975  0.66196921     0.94300
O419        O  0.91022323  0.27632200  0.60409740    -0.81100
C420        C  0.87440778  0.26844864  0.59098608     0.94400
O421        O  0.93479464  0.16832780  0.73208387    -0.81100
Mg422      Mg  0.72679962  0.07830975  0.69891834     1.58200
O423        O  0.96788040  0.32542789  0.64614920    -0.79400
O424        O  0.65175593  0.99165419  0.65417111    -0.81100
O425        O  0.72709731  0.61927334  0.66065915    -0.86700
C426        C  0.85228584  0.69099926  0.61962682     0.89400
Mg427      Mg  0.71719793  0.65713776  0.68835183     1.58100
O428        O  0.85498178  0.59839305  0.65380769    -0.86400
O429        O  0.73145320  0.55057326  0.65196128    -0.73700
C430        C  0.94688265  0.76405927  0.73712107     0.94400
O431        O  0.79089639  0.73993084  0.64773647    -0.73600
O432        O  0.90944993  0.77251318  0.73406665    -0.81100
Mg433      Mg  0.74446304  0.66150075  0.63079967     1.58000
C434        C  0.99699262  0.64296488  0.68637607     0.94300
O435        O  0.69568588  0.59070743  0.60988347    -0.79300
H436        H  0.82287934  0.52638566  0.66531498    -0.04700
C437        C  0.93862746  0.74954383  0.67341711     0.89300
O438        O  0.75192744  0.62091365  0.71056232    -0.73800
O439        O  0.81289886  0.65407260  0.62737049    -0.86600
O440        O  0.97871851  0.63607818  0.66741770    -0.79400
C441        C  0.90952527  0.59998988  0.60266293     0.94400
C442        C  0.70204796  0.56000380  0.59791582     0.94300
Mg443      Mg  0.90437392  0.66083129  0.70495505     1.58000
O444        O  0.95307305  0.73205452  0.72591623    -0.79300
O445        O  0.85720318  0.58243413  0.68785352    -0.73600
O446        O  0.86197121  0.58856893  0.60293693    -0.79400
O447        O  0.67115318  0.66663732  0.63398516    -0.81100
O448        O  0.78769090  0.73531185  0.73231811    -0.79400
C449        C  0.84454837  0.56740254  0.66866157     0.88700
O450        O  0.83644517  0.66890368  0.70824606    -0.86600
O451        O  0.92209387  0.70261487  0.67503763    -0.86700
O452        O  0.91679006  0.77125594  0.68289827    -0.73700
Mg453      Mg  0.79903073  0.57572707  0.62798839     1.58000
O454        O  0.94058052  0.62344488  0.61808996    -0.81100
H455        H  0.67673712  0.54894191  0.67195658    -0.04800
O456        O  0.79316956  0.72337502  0.68165959    -0.86400
H457        H  0.82412516  0.79555802  0.67048346    -0.04700
H458        H  0.80209128  0.60797788  0.72787608    -0.04800
C459        C  0.80309292  0.75461204  0.66696669     0.88700
C460        C  0.71006870  0.57219608  0.66185899     0.89300
C461        C  0.79741049  0.63205623  0.71620808     0.89300
H462        H  0.97178461  0.77253111  0.66319614    -0.04800
O463        O  0.89758751  0.70145877  0.62529442    -0.73800
Mg464      Mg  0.84978098  0.74705254  0.70704011     1.58000
H465        H  0.84810152  0.71562147  0.60808278    -0.04800
C466        C  0.65006865  0.67640856  0.64957741     0.94300
O467        O  0.70822604  0.69810493  0.71784191    -0.81100
C468        C  0.73987982  0.72292801  0.73294543     0.94400
O469        O  0.73982934  0.55171982  0.60039532    -0.81100
Mg470      Mg  0.93145163  0.66421051  0.64748774     1.58200
O471        O  0.66815726  0.68337796  0.66857092    -0.79400
O472        O  0.97703987  0.65430365  0.70192551    -0.81100
C473        C  0.62183554  0.79292677  0.85039782     0.04000
C474        C  0.61834359  0.83809059  0.85004313     0.03900
C475        C  0.64190463  0.87376923  0.83339752    -0.16600
C476        C  0.66697999  0.86389792  0.81651777     0.04000
C477        C  0.66662246  0.81632308  0.81589169     0.03900
C478        C  0.64503231  0.78178510  0.83319637    -0.16600
H479        H  0.64595754  0.74596591  0.83321548     0.06000
H480        H  0.64067636  0.90943941  0.83357174     0.06000
C481        C  0.01367367  0.52489241  0.48207384     0.04000
C482        C  0.01083619  0.47629035  0.48154747     0.03900
C483        C  0.98841667  0.44196763  0.49873991    -0.16600
C484        C  0.96994526  0.45533687  0.51684776     0.04000
C485        C  0.97547418  0.50511497  0.51809128     0.03900
C486        C  0.99661310  0.53905507  0.50053061    -0.16600
H487        H  0.99975931  0.57678559  0.50122941     0.06000
H488        H  0.98534096  0.40423899  0.49801788     0.06000
C489        C  0.46491796  0.49674231  0.48431643     0.04000
C490        C  0.51338630  0.54281241  0.48572390     0.03900
C491        C  0.54843188  0.54886154  0.50212357    -0.16600
C492        C  0.53562472  0.50946984  0.51728521     0.04000
C493        C  0.48666669  0.46376250  0.51617114     0.03900
C494        C  0.45172529  0.45766880  0.49967872    -0.16600
H495        H  0.41437772  0.42228433  0.49870445     0.06000
H496        H  0.58591304  0.58413157  0.50298109     0.06000
C497        C  0.51233968  0.97214657  0.48627683     0.04000
C498        C  0.45989530  0.95775415  0.48269274     0.03900
C499        C  0.43356446  0.97056708  0.49790817    -0.16600
C500        C  0.45826588  0.99660162  0.51679895     0.04000
C501        C  0.51006062  0.00910594  0.52090429     0.03900
C502        C  0.53676370  0.99709729  0.50544412    -0.16600
H503        H  0.57685756  0.00741968  0.50830046     0.06000
H504        H  0.39355597  0.96048541  0.49495579     0.06000
O505        O  0.02968291  0.94333565  0.01638848    -0.86700
C506        C  0.10708360  0.05342123  0.97118882     0.89400
Mg507      Mg  0.95188464  0.88122850  0.01182791     1.58100
O508        O  0.06239154  0.09284559  0.01555985    -0.86400
O509        O  0.07527955  0.00473773  0.03925483    -0.73700
C510        C  0.81829947  0.99321075  0.97837982     0.94400
O511        O  0.01895996  0.93074052  0.96525534    -0.73600
O512        O  0.81707395  0.95011169  0.97638301    -0.81100
Mg513      Mg  0.08305820  0.95554180  0.99075079     1.58000
C514        C  0.98604629  0.17767261  0.00257309     0.94300
O515        O  0.15232311  0.97582746  0.01248851    -0.79300
H516        H  0.06112040  0.10418906  0.04700797    -0.04700
C517        C  0.96748988  0.05108366  0.96241365     0.89300
O518        O  0.91837491  0.92361926  0.03079316    -0.73800
O519        O  0.10026689  0.03394612  0.98916197    -0.86600
O520        O  0.02991167  0.18060876  0.99968046    -0.79400
C521        C  0.18160177  0.19337666  0.99637299     0.94400
C522        C  0.19183675  0.01615324  0.01959838     0.94300
Mg523      Mg  0.92763756  0.05344445  0.00671148     1.58000
O524        O  0.85848576  0.03368432  0.98495586    -0.79300
O525        O  0.99153973  0.07822279  0.03222719    -0.73600
O526        O  0.18216605  0.15330954  0.00284366    -0.79400
O527        O  0.06654760  0.87375038  0.99332175    -0.81100
O528        O  0.82810384  0.85521806  0.99499707    -0.79400
C529        C  0.03971751  0.09279674  0.03212812     0.88700
O530        O  0.91052917  0.97514427  0.00827285    -0.86600
O531        O  0.98100301  0.06591060  0.98095387    -0.86700
O532        O  0.93465763  0.00422875  0.95826804    -0.73700
Mg533      Mg  0.12555090  0.07658494  0.01875441     1.58000
O534        O  0.14042044  0.19321191  0.99086859    -0.81100
H535        H  0.02532512  0.93041701  0.04790458    -0.04800
O536        O  0.94784266  0.91595165  0.98180428    -0.86400
H537        H  0.94960123  0.90516665  0.95032626    -0.04700
H538        H  0.88701321  0.96807171  0.03866485    -0.04800
C539        C  0.97078554  0.91630114  0.96526052     0.88700
C540        C  0.04285439  0.95789439  0.03497127     0.89300
C541        C  0.90396501  0.95590705  0.02627816     0.89300
H542        H  0.98490935  0.07834325  0.94940091    -0.04800
O543        O  0.09278337  0.08581917  0.96669322    -0.73800
Mg544      Mg  0.88443286  0.93223208  0.97885000     1.58000
H545        H  0.12420427  0.04141045  0.95881404    -0.04800
C546        C  0.02452498  0.83110477  0.99539197     0.94300
O547        O  0.87054680  0.81606244  0.00702965    -0.81100
C548        C  0.82906080  0.81550802  0.00175361     0.94400
O549        O  0.19267061  0.05899741  0.02171132    -0.81100
Mg550      Mg  0.05897235  0.12806429  0.98563506     1.58200
O551        O  0.98062844  0.82834058  0.99788483    -0.79400
O552        O  0.94407327  0.13498787  0.00451155    -0.81100
O553        O  0.72578897  0.30376179  0.31523295    -0.86700
C554        C  0.63234685  0.24477262  0.36786811     0.89400
Mg555      Mg  0.79059284  0.38183001  0.31334932     1.58100
O556        O  0.57896432  0.27599094  0.32386727    -0.86400
O557        O  0.65541091  0.25122656  0.29760020    -0.73700
C558        C  0.70139658  0.53314435  0.34692483     0.94400
O559        O  0.75733416  0.33267190  0.36424103    -0.76600
O560        O  0.74338283  0.53148479  0.34701958    -0.81100
Mg561      Mg  0.72236577  0.25964223  0.34324222     1.58000
C562        C  0.50206489  0.35565884  0.33442999     0.94300
O563        O  0.69013031  0.18061903  0.32603031    -0.79300
H564        H  0.55827215  0.26789822  0.29307117    -0.04700
C565        C  0.64349099  0.38888061  0.37014985     0.89300
O566        O  0.74250155  0.40964188  0.29499631    -0.73800
O567        O  0.64459405  0.24451743  0.34901174    -0.86600
O568        O  0.50189894  0.31475475  0.33985443    -0.79400
C569        C  0.48016671  0.16463691  0.35138074     0.94400
C570        C  0.64568434  0.14110019  0.32219480     0.94300
Mg571      Mg  0.62552697  0.41432969  0.32528078     1.58000
O572        O  0.65717090  0.49341118  0.34288940    -0.79300
O573        O  0.59101004  0.34160925  0.30401191    -0.73600
O574        O  0.51708109  0.16044785  0.34309606    -0.79400
O575        O  0.80515728  0.27567390  0.33738971    -0.81100
O576        O  0.82982643  0.51233906  0.32467141    -0.79400
C577        C  0.57482654  0.29370086  0.30657365     0.88700
O578        O  0.70282963  0.42946161  0.31943592    -0.86600
O579        O  0.62114360  0.36912476  0.35317375    -0.86700
O580        O  0.69180816  0.42183615  0.37068956    -0.73700
Mg581      Mg  0.59054994  0.21086860  0.32264334     1.58000
O582        O  0.48501683  0.20839062  0.35576686    -0.81100
H583        H  0.72588960  0.29523014  0.28352745    -0.04800
O584        O  0.76859406  0.39769060  0.34418814    -0.86400
H585        H  0.79033741  0.40664469  0.37486362    -0.04700
H586        H  0.69754702  0.44122528  0.28829253    -0.04800
C587        C  0.77337426  0.38047884  0.36149577     0.88700
C588        C  0.70375349  0.28380270  0.29824506     0.89300
C589        C  0.71404885  0.42814590  0.30051592     0.89300
H590        H  0.62163116  0.37714167  0.38493396    -0.04800
O591        O  0.60280061  0.26212283  0.37325914    -0.73800
Mg592      Mg  0.75690732  0.46293118  0.34562712     1.58000
H593        H  0.64852167  0.23144844  0.38013295    -0.04800
C594        C  0.84639415  0.31793172  0.33292308     0.94300
O595        O  0.85986956  0.46319756  0.31124473    -0.81100
C596        C  0.86542176  0.50716384  0.31560279     0.94400
O597        O  0.60392952  0.14300642  0.32174540    -0.81100
Mg598      Mg  0.55557894  0.29058265  0.35453931     1.58200
O599        O  0.84594051  0.35847494  0.32735984    -0.79400
O600        O  0.54344863  0.39825655  0.33075126    -0.81100
O601        O  0.25577891  0.68556333  0.65756786    -0.86700
C602        C  0.36695164  0.73871188  0.70378675     0.89400
Mg603      Mg  0.19679267  0.60658595  0.65605302     1.58100
O604        O  0.40977732  0.72405266  0.65302961    -0.86400
O605        O  0.31820004  0.74173483  0.63710822    -0.73700
C606        C  0.31517839  0.47088447  0.66367404     0.94400
O607        O  0.24475554  0.64687466  0.70642767    -0.73600
O608        O  0.27308781  0.46948618  0.66864222    -0.81100
Mg609      Mg  0.26661218  0.72213889  0.68829585     1.58000
C610        C  0.50554228  0.65943723  0.64893084     0.94300
O611        O  0.28639838  0.80080482  0.67392751    -0.79300
H612        H  0.42482437  0.74428006  0.62224931    -0.04700
C613        C  0.37329989  0.60526298  0.69420891     0.89300
O614        O  0.24254516  0.59004130  0.63052344    -0.73800
O615        O  0.34739566  0.74238405  0.68689983    -0.86600
O616        O  0.50279519  0.69630606  0.65767747    -0.79400
C617        C  0.50986597  0.83400036  0.67880300     0.94400
C618        C  0.32659060  0.84221728  0.66771945     0.94300
Mg619      Mg  0.37832636  0.59327830  0.64603542     1.58000
O620        O  0.35689333  0.51258024  0.65890872    -0.79300
O621        O  0.40152724  0.66902182  0.62829003    -0.73600
O622        O  0.46831817  0.83536699  0.67539184    -0.79400
O623        O  0.18014223  0.69960589  0.68992480    -0.81100
O624        O  0.17542665  0.48038714  0.65834298    -0.79400
C625        C  0.41310843  0.71415500  0.63413930     0.88700
O626        O  0.29734376  0.57366242  0.64733949    -0.86600
O627        O  0.38872781  0.62885889  0.67712610    -0.86700
O628        O  0.32602805  0.57089703  0.69695224    -0.73700
Mg629      Mg  0.39034932  0.78302447  0.65842121     1.58000
O630        O  0.51066741  0.79209426  0.67993190    -0.81100
H631        H  0.24364942  0.69692121  0.62711625    -0.04800
O632        O  0.23506179  0.59087203  0.68180218    -0.86400
H633        H  0.22243447  0.57193121  0.71278606    -0.04700
H634        H  0.29071100  0.57034168  0.61548212    -0.04800
C635        C  0.23310997  0.60154836  0.70073653     0.88700
C636        C  0.27093684  0.70788784  0.64021530     0.89300
C637        C  0.27735697  0.57718955  0.63055972     0.89300
H638        H  0.40035032  0.61523790  0.70734477    -0.04800
O639        O  0.40121571  0.72515186  0.70408090    -0.73800
Mg640      Mg  0.25374819  0.53148886  0.67546202     1.58000
H641        H  0.35339109  0.74574642  0.71877288    -0.04800
C642        C  0.13962489  0.65592946  0.68637270     0.94300
O643        O  0.13354593  0.52435142  0.65509774    -0.81100
C644        C  0.13397008  0.48231689  0.65558775     0.94400
O645        O  0.36962663  0.84484499  0.66344929    -0.81100
Mg646      Mg  0.44759596  0.70867414  0.67895965     1.58200
O647        O  0.14202146  0.61871994  0.67779078    -0.79400
O648        O  0.46515900  0.61586821  0.64491016    -0.81100
C649        C  0.08841874  0.64863840  0.69022763    -0.11600
C650        C  0.04499092  0.64277511  0.68980194    -0.13200
C651        C  0.55706652  0.66720544  0.64541221    -0.11600
C652        C  0.60105148  0.67452955  0.64609702    -0.13200
C653        C  0.72225865  0.74049859  0.75099926    -0.16800
C654        C  0.71060121  0.75926065  0.76569845     0.07200
C655        C  0.69793760  0.78254073  0.78280208     0.09100
C656        C  0.68568435  0.80052079  0.79760161    -0.17700
C657        C  0.57298667  0.51618871  0.53384061    -0.16800
C658        C  0.60277953  0.52055644  0.54801769     0.07200
C659        C  0.63715254  0.52721194  0.56513503     0.09100
C660        C  0.66667319  0.53761169  0.58010941    -0.17700
C661        C  0.92753242  0.58300354  0.58458576    -0.16800
C662        C  0.93910326  0.56467028  0.56972443     0.07200
C663        C  0.95070568  0.54154623  0.55227480     0.09100
C664        C  0.96085240  0.52303545  0.53704883    -0.17700
C665        C  0.59864889  0.92189346  0.67643992    -0.11600
C666        C  0.55847547  0.88178319  0.67916489    -0.13200
C667        C  0.04371832  0.39649033  0.65808027    -0.11600
C668        C  0.08497356  0.43521587  0.65525409    -0.13200
C669        C  0.69306193  0.90406198  0.80058569    -0.16800
C670        C  0.71366240  0.94126795  0.78887019     0.07200
C671        C  0.73553665  0.98543754  0.77539658     0.09100
C672        C  0.75147568  0.02019250  0.76245679    -0.17700
C673        C  0.62453092  0.09140584  0.58994372    -0.16800
C674        C  0.59380616  0.07435994  0.57523639     0.07200
C675        C  0.56147769  0.05290425  0.55691400     0.09100
C676        C  0.53665201  0.03364041  0.54074348    -0.17700
C677        C  0.88870443  0.30131251  0.57233622    -0.16800
C678        C  0.90442927  0.33589827  0.55927274     0.07200
C679        C  0.92565914  0.37968887  0.54550309     0.09100
C680        C  0.94533106  0.41633764  0.53341758    -0.17700
C681        C  0.07037039  0.82179489  0.80384488    -0.16800
C682        C  0.04177036  0.81266641  0.78868707     0.07200
C683        C  0.00961784  0.80153443  0.77042150     0.09100
C684        C  0.98174822  0.78820077  0.75485162    -0.17700
C685        C  0.10755191  0.29421048  0.79454928    -0.16800
C686        C  0.07891308  0.27450349  0.77925835     0.07200
C687        C  0.04486170  0.25154401  0.76137907     0.09100
C688        C  0.01412433  0.23305767  0.74664464    -0.17700
C689        C  0.31458738  0.42288162  0.66228220    -0.11600
C690        C  0.31259894  0.38195266  0.66013893    -0.13200
C691        C  0.32378733  0.88839597  0.66613819    -0.11600
C692        C  0.32174702  0.92752928  0.66584780    -0.13200
C693        C  0.19724303  0.98961884  0.74910239    -0.16800
C694        C  0.18579895  0.96569422  0.76570081     0.07200
C695        C  0.17639358  0.94006669  0.78564601     0.09100
C696        C  0.16826453  0.91665149  0.80228249    -0.17700
C697        C  0.27012679  0.25213356  0.75436137    -0.16800
C698        C  0.25226430  0.26661706  0.76823977     0.07200
C699        C  0.22806303  0.28329477  0.78313805     0.09100
C700        C  0.20872581  0.29853443  0.79606710    -0.17700
C701        C  0.35748149  0.05280367  0.56946992    -0.16800
C702        C  0.37687119  0.03848435  0.55616418     0.07200
C703        C  0.40468424  0.02320245  0.54253096     0.09100
C704        C  0.42969828  0.01094239  0.53126409    -0.17700
C705        C  0.43353310  0.32231416  0.57660221    -0.16800
C706        C  0.44795989  0.35388685  0.56232489     0.07200
C707        C  0.46119876  0.39080065  0.54571778     0.09100
C708        C  0.47193966  0.42304243  0.53192688    -0.17700
C709        C  0.98315680  0.22412531  0.00202276    -0.11600
C710        C  0.98102189  0.26307537  0.99976030    -0.13200
C711        C  0.02867450  0.74533357  0.99962092    -0.11600
C712        C  0.02723902  0.78452664  0.99669471    -0.13200
C713        C  0.12142704  0.77381283  0.87080961    -0.16800
C714        C  0.10706259  0.73680745  0.88249751     0.07200
C715        C  0.08746623  0.69238362  0.89578268     0.09100
C716        C  0.07076667  0.65685634  0.90838181    -0.17700
C717        C  0.14895851  0.38214200  0.86563916    -0.16800
C718        C  0.13888045  0.40034493  0.88104790     0.07200
C719        C  0.12721976  0.42151301  0.89926996     0.09100
C720        C  0.11508592  0.43845203  0.91450979    -0.17700
C721        C  0.26999480  0.28066337  0.99881299    -0.11600
C722        C  0.22926950  0.24131166  0.99671664    -0.13200
C723        C  0.78151275  0.76738127  0.00220482    -0.11600
C724        C  0.74128250  0.72716403  0.00092003    -0.13200
C725        C  0.55363244  0.68410836  0.92120232    -0.16800
C726        C  0.56808593  0.70922329  0.90496683     0.07200
C727        C  0.58631975  0.73518460  0.88522909     0.09100
C728        C  0.60238744  0.75876632  0.86868992    -0.17700
C729        C  0.35404268  0.42653477  0.90813646    -0.16800
C730        C  0.32202797  0.41422861  0.89410449     0.07200
C731        C  0.28209121  0.39851119  0.87864336     0.09100
C732        C  0.24846972  0.38322987  0.86516533    -0.17700
C733        C  0.73429441  0.00249101  0.97630536    -0.11600
C734        C  0.77190518  0.99674432  0.97520962    -0.13200
C735        C  0.27625282  0.00810573  0.02239135    -0.11600
C736        C  0.23817744  0.01300217  0.02323247    -0.13200
C737        C  0.21654156  0.87887142  0.87277443    -0.16800
C738        C  0.24898235  0.89624391  0.88690480     0.07200
C739        C  0.28759406  0.91803538  0.90327674     0.09100
C740        C  0.31992958  0.93535415  0.91744970    -0.17700
C741        C  0.52066760  0.86896610  0.91361875    -0.16800
C742        C  0.53829840  0.85800384  0.89840509     0.07200
C743        C  0.56530326  0.85196207  0.88100605     0.09100
C744        C  0.59002194  0.84755237  0.86663796    -0.17700
C745        C  0.89205211  0.56909707  0.08427727    -0.16800
C746        C  0.88112148  0.58780224  0.09917168     0.07200
C747        C  0.87187924  0.61182696  0.11691466     0.09100
C748        C  0.86389058  0.63234139  0.13199546    -0.17700
C749        C  0.65616258  0.57816509  0.09231789    -0.16800
C750        C  0.68752484  0.59039611  0.10655893     0.07200
C751        C  0.72737768  0.60702882  0.12201354     0.09100
C752        C  0.76182790  0.62430554  0.13509115    -0.17700
C753        C  0.64224057  0.09165546  0.31987416    -0.11600
C754        C  0.64166644  0.05100564  0.32046509    -0.13200
C755        C  0.70455107  0.62319687  0.35050938    -0.11600
C756        C  0.70418795  0.58243332  0.35013206    -0.13200
C757        C  0.60877926  0.93477171  0.42418672    -0.16800
C758        C  0.59102623  0.94537861  0.43946430     0.07200
C759        C  0.56569713  0.95516806  0.45647277     0.09100
C760        C  0.54193267  0.96267666  0.47034059    -0.17700
C761        C  0.52767271  0.58337399  0.46999153    -0.16800
C762        C  0.53627161  0.61396668  0.45574276     0.07200
C763        C  0.54613470  0.64772959  0.43824012     0.09100
C764        C  0.55816352  0.67661323  0.42309677    -0.17700
C765        C  0.74411707  0.74532688  0.24906663    -0.16800
C766        C  0.76353501  0.73547974  0.23425795     0.07200
C767        C  0.78862101  0.72501284  0.21752828     0.09100
C768        C  0.80806353  0.71414036  0.20304720    -0.17700
C769        C  0.38902262  0.07746618  0.35330288    -0.11600
C770        C  0.43006714  0.11804648  0.35411734    -0.13200
C771        C  0.91525360  0.55276629  0.31180837    -0.11600
C772        C  0.95713634  0.59217727  0.31179080    -0.13200
C773        C  0.07526888  0.65482461  0.41625983    -0.16800
C774        C  0.06171623  0.62532605  0.43137673     0.07200
C775        C  0.04635673  0.59016834  0.44893306     0.09100
C776        C  0.03254696  0.56025605  0.46391119    -0.17700
C777        C  0.34021105  0.86693563  0.41623768    -0.16800
C778        C  0.37123952  0.88348366  0.43077350     0.07200
C779        C  0.40541592  0.90766481  0.44825696     0.09100
C780        C  0.43199012  0.93020093  0.46359806    -0.17700
C781        C  0.00991511  0.79909770  0.24614556    -0.16800
C782        C  0.97979356  0.78184142  0.23126246     0.07200
C783        C  0.94489993  0.75669835  0.21398318     0.09100
C784        C  0.91449608  0.73319511  0.19969827    -0.17700
C785        C  0.93899543  0.35205725  0.09251074    -0.16800
C786        C  0.92259346  0.31777513  0.10578571     0.07200
C787        C  0.90243672  0.27456663  0.11994894     0.09100
C788        C  0.88638024  0.23778670  0.13198191    -0.17700
C789        C  0.69127355  0.07776905  0.08096967    -0.16800
C790        C  0.72321220  0.09546122  0.09521423     0.07200
C791        C  0.76065080  0.11729496  0.11190830     0.09100
C792        C  0.79126222  0.13380116  0.12664628    -0.17700
C793        C  0.78840981  0.99832194  0.24761047    -0.16800
C794        C  0.80142917  0.02471096  0.23160277     0.07200
C795        C  0.81382307  0.05502598  0.21270118     0.09100
C796        C  0.82487326  0.08270748  0.19713184    -0.17700
C797        C  0.41222203  0.24778295  0.13152673    -0.16800
C798        C  0.42778339  0.27007408  0.11470328     0.07200
C799        C  0.44536820  0.29569925  0.09488002     0.09100
C800        C  0.45920115  0.32098481  0.07868424    -0.17700
C801        C  0.48941299  0.13876368  0.08756504    -0.16800
C802        C  0.47358744  0.14870695  0.10371051     0.07200
C803        C  0.44961400  0.15523274  0.12221479     0.09100
C804        C  0.42705781  0.16117198  0.13713541    -0.17700
C805        C  0.27379868  0.01516564  0.24930585    -0.16800
C806        C  0.29046813  0.04741859  0.23524863     0.07200
C807        C  0.31088285  0.08621659  0.21914995     0.09100
C808        C  0.32912654  0.11839013  0.20509196    -0.17700
C809        C  0.41088337  0.34907199  0.33469083    -0.11600
C810        C  0.45309935  0.35325543  0.33365337    -0.13200
C811        C  0.89579140  0.32042397  0.33286825    -0.11600
C812        C  0.93839075  0.32521632  0.33120836    -0.13200
C813        C  0.08106084  0.39929230  0.42331204    -0.16800
C814        C  0.06574929  0.41799765  0.43654962     0.07200
C815        C  0.04745874  0.44167123  0.45106683     0.09100
C816        C  0.03118358  0.46005617  0.46403749    -0.17700
C817        C  0.34761401  0.47013132  0.41636427    -0.16800
C818        C  0.37404746  0.47935607  0.43232141     0.07200
C819        C  0.40341259  0.48490634  0.45113740     0.09100
C820        C  0.42951942  0.48893966  0.46672306    -0.17700
C821        C  0.00242094  0.20131328  0.25086610    -0.16800
C822        C  0.97554246  0.19058937  0.23508514     0.07200
C823        C  0.94657332  0.18385474  0.21619786     0.09100
C824        C  0.92142315  0.17854485  0.20025083    -0.17700
C825        C  0.27051929  0.27385216  0.24186298    -0.16800
C826        C  0.28610475  0.25550029  0.22842379     0.07200
C827        C  0.30535182  0.23266726  0.21365924     0.09100
C828        C  0.32329269  0.21485642  0.20102357    -0.17700
loop_ 
_geom_bond_atom_site_label_1 
_geom_bond_atom_site_label_2 
_geom_bond_distance 
_geom_bond_site_symmetry_2 
_ccdc_geom_bond_type 
O1           Mg3   2.161       .  S
O1           Mg9   2.159       .  S
O1           C36   1.234       .  S
C2           O15   1.234       .  S
C2           O39   1.267       .  A
C2           H41   1.081       .  S
Mg3          O32   2.171       .  S
Mg3          O47   2.272       .  S
Mg3          O43   2.260       .  S
Mg3          O14   2.291       .  S
O4          Mg46   2.165       .  S
O4          Mg29   2.148       .  S
O4           C25   1.236       .  S
O5           C36   1.269       .  A
O5          Mg29   2.303       .  S
C6            O8   1.273       .  A
C6           O20   1.275       .  A
C6          C817   1.447       .  S
O7           C35   1.271       .  A
O7           Mg9   2.305       .  S
O8          Mg40   2.284       .  S
Mg9          O15   2.148       .  S
Mg9          O23   2.270       .  S
Mg9          O11   2.306       .  S
C10          O48   1.268       .  A
C10          O16   1.267       .  A
C10         C809   1.421       .  S
O11          C18   1.274       .  A
H12          C25   1.082       .  S
C13          O27   1.234       .  S
C13          O28   1.270       .  A
C13          H38   1.082       .  S
O14          C37   1.267       .  A
O15         Mg29   2.164       .  S
O16         Mg46   2.260       .  S
C17          O30   1.272       .  A
C17          O22   1.276       .  A
C17         C825   1.450       .  S
C18          O45   1.272       .  A
C18         C821   1.437       .  S
Mg19         O26   2.137       .  S
Mg19         O27   2.167       .  S
Mg19         O20   2.318       .  S
Mg19         O21   2.301       .  S
Mg19         O48   2.246       .  S
O21          C25   1.270       .  A
O22         Mg29   2.326       .  S
O23          C42   1.270   1_455  A
O24          C44   1.274       .  A
O24         Mg40   2.309       .  S
O26         Mg40   2.154       .  S
O26          C37   1.233       .  S
O27         Mg46   2.176       .  S
O28         Mg40   2.308       .  S
Mg29         O45   2.267       .  S
O30         Mg46   2.284       .  S
H31          C36   1.082       .  S
O32         Mg40   2.160       .  S
O32          C35   1.236       .  S
H33          C35   1.082       .  S
H34          C37   1.081       .  S
O39         Mg46   2.291       .  S
C42          O47   1.268   1_655  A
C42         C812   1.432       .  S
O43          C44   1.269       .  A
C44         C813   1.438       .  S
C49         C808   1.451       .  S
C49          C50   1.418       .  A
C49          C54   1.410       .  A
C50         C828   1.458       .  S
C50          C51   1.406       .  A
C51          H56   1.085       .  S
C51          C52   1.404       .  A
C52         C797   1.445       .  S
C52          C53   1.406       .  A
C53         C804   1.456       .  S
C53          C54   1.404       .  A
C54          H55   1.085       .  S
C57         C796   1.454       .  S
C57          C58   1.407       .  A
C57          C62   1.404       .  A
C58         C824   1.449       .  S
C58          C59   1.405       .  A
C59          H64   1.085       .  S
C59          C60   1.408       .  A
C60         C788   1.457       .  S
C60          C61   1.418       .  A
C61         C792   1.454       .  S
C61          C62   1.409       .  A
C62          H63   1.085       .  S
O65         Mg67   2.155       .  S
O65         Mg73   2.159       .  S
O65         C100   1.237       .  S
C66          O79   1.235       .  S
C66         O103   1.269       .  A
C66         H105   1.081       .  S
Mg67         O96   2.169       .  S
Mg67        O111   2.332   1_565  S
Mg67        O107   2.274       .  S
Mg67         O78   2.303       .  S
O68        Mg110   2.164       .  S
O68         Mg93   2.160       .  S
O68          C89   1.236       .  S
O69         C100   1.271       .  A
O69         Mg93   2.304       .  S
C70          O72   1.275       .  A
C70          O84   1.272       .  A
C70         C781   1.446       .  S
O71          C99   1.271       .  A
O71         Mg73   2.303       .  S
O72        Mg104   2.306       .  S
Mg73         O79   2.158       .  S
Mg73         O87   2.284       .  S
Mg73         O75   2.292       .  S
C74         O112   1.271       .  A
C74          O80   1.276       .  A
C74         C772   1.442   1_455  S
O75          C82   1.272       .  A
H76          C89   1.082       .  S
C77          O91   1.236       .  S
C77          O92   1.271       .  A
C77         H102   1.082       .  S
O78         C101   1.270       .  A
O79         Mg93   2.165       .  S
O80        Mg110   2.317       .  S
C81          O94   1.275       .  A
C81          O86   1.277       .  A
C81         C773   1.450       .  S
C82         O109   1.274       .  A
C82         C777   1.442       .  S
Mg83         O90   2.160       .  S
Mg83         O91   2.161       .  S
Mg83         O84   2.298       .  S
Mg83         O85   2.299       .  S
Mg83        O112   2.275       .  S
O85          C89   1.270       .  A
O86         Mg93   2.328       .  S
O87         C106   1.271   1_565  A
O88         C108   1.277       .  A
O88        Mg104   2.329       .  S
O90        Mg104   2.164       .  S
O90         C101   1.235       .  S
O91        Mg110   2.166       .  S
O92        Mg104   2.307       .  S
Mg93        O109   2.295       .  S
O94        Mg110   2.298       .  S
H95         C100   1.082       .  S
O96        Mg104   2.169       .  S
O96          C99   1.236       .  S
H97          C99   1.082       .  S
H98         C101   1.081       .  S
O103       Mg110   2.297       .  S
C106        O111   1.277       .  A
C106        C769   1.450       .  S
O107        C108   1.272       .  A
C108        C805   1.444   1_565  S
O113       Mg115   2.146       .  S
O113       Mg121   2.159       .  S
O113        C148   1.236       .  S
C114        O127   1.236       .  S
C114        O151   1.271       .  A
C114        H153   1.081       .  S
Mg115       O144   2.167       .  S
Mg115       O159   2.323       .  S
Mg115       O155   2.261       .  S
Mg115       O126   2.300       .  S
O116       Mg158   2.161       .  S
O116       Mg141   2.157       .  S
O116        C137   1.235       .  S
O117        C148   1.270       .  A
O117       Mg141   2.300       .  S
C118        O120   1.272       .  A
C118        O132   1.273       .  A
C118        C793   1.443       .  S
O119        C147   1.269       .  A
O119       Mg121   2.300       .  S
O120       Mg152   2.284       .  S
Mg121       O127   2.157       .  S
Mg121       O135   2.282       .  S
Mg121       O123   2.293       .  S
C122        O160   1.269   1_545  A
C122        O128   1.277   1_545  A
C122        C754   1.437       .  S
O123        C130   1.272       .  A
H124        C137   1.081       .  S
C125        O139   1.235       .  S
C125        O140   1.269       .  A
C125        H150   1.082       .  S
O126        C149   1.270       .  A
O127       Mg141   2.162       .  S
O128       Mg158   2.320       .  S
C129        O142   1.272       .  A
C129        O134   1.274       .  A
C129        C757   1.438       .  S
C130        O157   1.272       .  A
C130        C764   1.438       .  S
Mg131       O138   2.143       .  S
Mg131       O139   2.163       .  S
Mg131       O132   2.307       .  S
Mg131       O133   2.299       .  S
Mg131       O160   2.254       .  S
O133        C137   1.269       .  A
O134       Mg141   2.303       .  S
O135        C154   1.272       .  A
O136        C156   1.271       .  A
O136       Mg152   2.283       .  S
O138       Mg152   2.159       .  S
O138        C149   1.235       .  S
O139       Mg158   2.148       .  S
O140       Mg152   2.295       .  S
Mg141       O157   2.281       .  S
O142       Mg158   2.277       .  S
H143        C148   1.082       .  S
O144       Mg152   2.163       .  S
O144        C147   1.235       .  S
H145        C147   1.081       .  S
H146        C149   1.081       .  S
O151       Mg158   2.303       .  S
C154        O159   1.276       .  A
C154        C755   1.447       .  S
O155        C156   1.270       .  A
C156        C765   1.430       .  S
C161        C784   1.456       .  S
C161        C162   1.410       .  A
C161        C166   1.411       .  A
C162        C768   1.440       .  S
C162        C163   1.396       .  A
C163        H168   1.086       .  S
C163        C164   1.395       .  A
C164        C752   1.444       .  S
C164        C165   1.410       .  A
C165        C748   1.453       .  S
C165        C166   1.412       .  A
C166        H167   1.084       .  S
O169       Mg171   2.170   1_554  S
O169       Mg177   2.165       .  S
O169        C204   1.236       .  S
C170        O183   1.234   1_565  S
C170        O207   1.269       .  A
C170        H209   1.081       .  S
Mg171       O200   2.168   1_545  S
Mg171       O215   2.326   1_545  S
Mg171       O211   2.303   1_545  S
Mg171       O182   2.302       .  S
O172       Mg214   2.174   1_545  S
O172       Mg197   2.167       .  S
O172        C193   1.236   1_554  S
O173        C204   1.272       .  A
O173       Mg197   2.310       .  S
C174        O176   1.273       .  A
C174        O188   1.269       .  A
C174        C741   1.437       .  S
O175        C203   1.270       .  A
O175       Mg177   2.297   1_565  S
O176       Mg208   2.291       .  S
Mg177       O183   2.164       .  S
Mg177       O191   2.273       .  S
Mg177       O179   2.291       .  S
C178        O216   1.270   1_545  A
C178        O184   1.277       .  A
C178        C733   1.449       .  S
O179        C186   1.271       .  A
H180        C193   1.081   1_554  S
C181        O195   1.236       .  S
C181        O196   1.272       .  A
C181        H206   1.082   1_556  S
O182        C205   1.269       .  A
O183       Mg197   2.158       .  S
O184       Mg214   2.332   1_546  S
C185        O198   1.275       .  A
C185        O190   1.276       .  A
C185        C789   1.447       .  S
C186        O213   1.273       .  A
C186        C801   1.444       .  S
Mg187       O194   2.164       .  S
Mg187       O195   2.161       .  S
Mg187       O188   2.276       .  S
Mg187       O189   2.300   1_565  S
Mg187       O216   2.277       .  S
O189        C193   1.270       .  A
O190       Mg197   2.319       .  S
O191        C210   1.270       .  A
O192        C212   1.277       .  A
O192       Mg208   2.328       .  S
O194       Mg208   2.163       .  S
O194        C205   1.234   1_565  S
O195       Mg214   2.164   1_556  S
O196       Mg208   2.310       .  S
Mg197       O213   2.299       .  S
O198       Mg214   2.292   1_545  S
H199        C204   1.082   1_556  S
O200       Mg208   2.158       .  S
O200        C203   1.235   1_556  S
H201        C203   1.081   1_556  S
H202        C205   1.081       .  S
O207       Mg214   2.302       .  S
C210        O215   1.277   1_544  A
C210        C735   1.445       .  S
O211        C212   1.276       .  A
C212        C740   1.452       .  S
O217       Mg219   2.154       .  S
O217       Mg225   2.161   1_554  S
O217        C252   1.234       .  S
C218        O231   1.234       .  S
C218        O255   1.267       .  A
C218        H257   1.081       .  S
Mg219       O248   2.162       .  S
Mg219       O263   2.268       .  S
Mg219       O259   2.259       .  S
Mg219       O230   2.290       .  S
O220       Mg262   2.163       .  S
O220       Mg245   2.138       .  S
O220        C241   1.235       .  S
O221        C252   1.269   1_556  A
O221       Mg245   2.301       .  S
C222        O224   1.269       .  A
C222        O236   1.274       .  A
C222        C800   1.433       .  S
O223        C251   1.270   1_556  A
O223       Mg225   2.298       .  S
O224       Mg256   2.250       .  S
Mg225       O231   2.137       .  S
Mg225       O239   2.251       .  S
Mg225       O227   2.308       .  S
C226        O264   1.269       .  A
C226        O232   1.266   1_554  A
C226        C721   1.422   1_554  S
O227        C234   1.274       .  A
H228        C241   1.082       .  S
C229        O243   1.234   1_556  S
C229        O244   1.268   1_556  A
C229        H254   1.082       .  S
O230        C253   1.267       .  A
O231       Mg245   2.157       .  S
O232       Mg262   2.256       .  S
C233        O246   1.269       .  A
C233        O238   1.273       .  A
C233        C729   1.438       .  S
C234        O261   1.269       .  A
C234        C725   1.434       .  S
Mg235       O242   2.136       .  S
Mg235       O243   2.162       .  S
Mg235       O236   2.309       .  S
Mg235       O237   2.298       .  S
Mg235       O264   2.256       .  S
O237        C241   1.270   1_554  A
O238       Mg245   2.307       .  S
O239        C258   1.269       .  A
O240        C260   1.272       .  A
O240       Mg256   2.300       .  S
O242       Mg256   2.156       .  S
O242        C253   1.234       .  S
O243       Mg262   2.154   1_554  S
O244       Mg256   2.299       .  S
Mg245       O261   2.250       .  S
O246       Mg262   2.261       .  S
H247        C252   1.082       .  S
O248       Mg256   2.140       .  S
O248        C251   1.235       .  S
H249        C251   1.082       .  S
H250        C253   1.081       .  S
O255       Mg262   2.290       .  S
C258        O263   1.268   1_556  A
C258        C724   1.424   1_556  S
O259        C260   1.269       .  A
C260        C749   1.435       .  S
O265       Mg267   2.167   1_556  S
O265       Mg273   2.161   1_455  S
O265        C300   1.233       .  S
C266        O279   1.235   1_655  S
C266        O303   1.269       .  A
C266        H305   1.081       .  S
Mg267       O296   2.164   1_455  S
Mg267       O311   2.275   1_455  S
Mg267       O307   2.264   1_455  S
Mg267       O278   2.293       .  S
O268       Mg310   2.165   1_455  S
O268       Mg293   2.170       .  S
O268        C289   1.237       .  S
O269        C300   1.268       .  A
O269       Mg293   2.302       .  S
C270        O272   1.275       .  A
C270        O284   1.276       .  A
C270        C745   1.444       .  S
O271        C299   1.272   1_556  A
O271       Mg273   2.310       .  S
O272       Mg304   2.290       .  S
Mg273       O279   2.150   1_655  S
Mg273       O287   2.277       .  S
Mg273       O275   2.332   1_655  S
C274        O312   1.272       .  A
C274        O280   1.267   1_554  A
C274        C711   1.436   1_554  S
O275        C282   1.278       .  A
H276        C289   1.081       .  S
C277        O291   1.233       .  S
C277        O292   1.269       .  A
C277        H302   1.082   1_554  S
O278        C301   1.269       .  A
O279       Mg293   2.170       .  S
O280       Mg310   2.275   1_455  S
C281        O294   1.267       .  A
C281        O286   1.276       .  A
C281        C716   1.441       .  S
C282        O309   1.275       .  A
C282        C720   1.451       .  S
Mg283       O290   2.153       .  S
Mg283       O291   2.153   1_455  S
Mg283       O284   2.317   1_455  S
Mg283       O285   2.311       .  S
Mg283       O312   2.286       .  S
O285        C289   1.272   1_554  A
O286       Mg293   2.330       .  S
O287        C306   1.271       .  A
O288        C308   1.278       .  A
O288       Mg304   2.340       .  S
O290       Mg304   2.170   1_455  S
O290        C301   1.235       .  S
O291       Mg310   2.159   1_554  S
O292       Mg304   2.303       .  S
Mg293       O309   2.296       .  S
O294       Mg310   2.245   1_455  S
H295        C300   1.082   1_554  S
O296       Mg304   2.166       .  S
O296        C299   1.237       .  S
H297        C299   1.081       .  S
H298        C301   1.081       .  S
O303       Mg310   2.291       .  S
C306        O311   1.268   1_556  A
C306        C710   1.433       .  S
O307        C308   1.269       .  A
C308        C785   1.448       .  S
O313       Mg315   2.152       .  S
O313       Mg321   2.162       .  S
O313        C348   1.234       .  S
C314        O327   1.234       .  S
C314        O351   1.267       .  A
C314        H353   1.081       .  S
Mg315       O344   2.159       .  S
Mg315       O359   2.290   1_545  S
Mg315       O355   2.255       .  S
Mg315       O326   2.299       .  S
O316       Mg358   2.164       .  S
O316       Mg341   2.146       .  S
O316        C337   1.235       .  S
O317        C348   1.268       .  A
O317       Mg341   2.297       .  S
C318        O320   1.273       .  A
C318        O332   1.274       .  A
C318        C705   1.442       .  S
O319        C347   1.271       .  A
O319       Mg321   2.304       .  S
O320       Mg352   2.287       .  S
Mg321       O327   2.129       .  S
Mg321       O335   2.247   1_545  S
Mg321       O323   2.317       .  S
C322        O360   1.270       .  A
C322        O328   1.268       .  A
C322        C690   1.428       .  S
O323        C330   1.275       .  A
H324        C337   1.082       .  S
C325        O339   1.234       .  S
C325        O340   1.268       .  A
C325        H350   1.082       .  S
O326        C349   1.270       .  A
O327       Mg341   2.156       .  S
O328       Mg358   2.268       .  S
C329        O342   1.268       .  A
C329        O334   1.272       .  A
C329        C697   1.433       .  S
C330        O357   1.270       .  A
C330        C693   1.438   1_545  S
Mg331       O338   2.144       .  S
Mg331       O339   2.161       .  S
Mg331       O332   2.304       .  S
Mg331       O333   2.299       .  S
Mg331       O360   2.265       .  S
O333        C337   1.270       .  A
O334       Mg341   2.295       .  S
O335        C354   1.268       .  A
O336        C356   1.274       .  A
O336       Mg352   2.306       .  S
O338       Mg352   2.160       .  S
O338        C349   1.236       .  S
O339       Mg358   2.150       .  S
O340       Mg352   2.297       .  S
Mg341       O357   2.259       .  S
O342       Mg358   2.253       .  S
H343        C348   1.082       .  S
O344       Mg352   2.159       .  S
O344        C347   1.236       .  S
H345        C347   1.081       .  S
H346        C349   1.081       .  S
O351       Mg358   2.288       .  S
C354        O359   1.271       .  A
C354        C692   1.427       .  S
O355        C356   1.269       .  A
C356        C701   1.434       .  S
C361        C717   1.459       .  S
C361        C362   1.412       .  A
C361        C366   1.416       .  A
C362        C732   1.448       .  S
C362        C363   1.397       .  A
C363        H368   1.086       .  S
C363        C364   1.397       .  A
C364        C700   1.443       .  S
C364        C365   1.412       .  A
C365        C685   1.463       .  S
C365        C366   1.416       .  A
C366        H367   1.084       .  S
C369        C713   1.450       .  S
C369        C370   1.418       .  A
C369        C374   1.406       .  A
C370        C737   1.459       .  S
C370        C371   1.409       .  A
C371        H376   1.085       .  S
C371        C372   1.406       .  A
C372        C696   1.449       .  S
C372        C373   1.406       .  A
C373        C681   1.452       .  S
C373        C374   1.401       .  A
C374        H375   1.085       .  S
O377       Mg379   2.167       .  S
O377       Mg385   2.163       .  S
O377        C412   1.233       .  S
C378        O391   1.235       .  S
C378        O415   1.269       .  A
C378        H417   1.081       .  S
Mg379       O408   2.165       .  S
Mg379       O423   2.271       .  S
Mg379       O419   2.256       .  S
Mg379       O390   2.291       .  S
O380       Mg422   2.168       .  S
O380       Mg405   2.175       .  S
O380        C401   1.237       .  S
O381        C412   1.268       .  A
O381       Mg405   2.302       .  S
C382        O384   1.275       .  A
C382        O396   1.278       .  A
C382        C673   1.448       .  S
O383        C411   1.271       .  A
O383       Mg385   2.309       .  S
O384       Mg416   2.287       .  S
Mg385       O391   2.149       .  S
Mg385       O399   2.271       .  S
Mg385       O387   2.336       .  S
C386        O424   1.272       .  A
C386        O392   1.268       .  A
C386        C665   1.435       .  S
O387        C394   1.278       .  A
H388        C401   1.082       .  S
C389        O403   1.233       .  S
C389        O404   1.268       .  A
C389        H414   1.082       .  S
O390        C413   1.268       .  A
O391       Mg405   2.168       .  S
O392       Mg422   2.279   1_565  S
C393        O406   1.267       .  A
C393        O398   1.275       .  A
C393        C672   1.440       .  S
C394        O421   1.276       .  A
C394        C688   1.455   1_655  S
Mg395       O402   2.147       .  S
Mg395       O403   2.158       .  S
Mg395       O396   2.333       .  S
Mg395       O397   2.313       .  S
Mg395       O424   2.279   1_545  S
O397        C401   1.273       .  A
O398       Mg405   2.324       .  S
O399        C418   1.271       .  A
O400        C420   1.276       .  A
O400       Mg416   2.330       .  S
O402       Mg416   2.167       .  S
O402        C413   1.235       .  S
O403       Mg422   2.161       .  S
O404       Mg416   2.301       .  S
Mg405       O421   2.300       .  S
O406       Mg422   2.248       .  S
H407        C412   1.082       .  S
O408       Mg416   2.165       .  S
O408        C411   1.236       .  S
H409        C411   1.082       .  S
H410        C413   1.081       .  S
O415       Mg422   2.294       .  S
C418        O423   1.268       .  A
C418        C667   1.431   1_655  S
O419        C420   1.268       .  A
C420        C677   1.444       .  S
O425       Mg427   2.168       .  S
O425       Mg433   2.165       .  S
O425        C460   1.236       .  S
C426        O439   1.235       .  S
C426        O463   1.270       .  A
C426        H465   1.081       .  S
Mg427       O456   2.168       .  S
Mg427       O471   2.327       .  S
Mg427       O467   2.302       .  S
Mg427       O438   2.299       .  S
O428       Mg470   2.168       .  S
O428       Mg453   2.168       .  S
O428        C449   1.236       .  S
O429        C460   1.271       .  A
O429       Mg453   2.307       .  S
C430        O432   1.272       .  A
C430        O444   1.272       .  A
C430        C684   1.440       .  S
O431        C459   1.269       .  A
O431       Mg433   2.298       .  S
O432       Mg464   2.286       .  S
Mg433       O439   2.163       .  S
Mg433       O447   2.267       .  S
Mg433       O435   2.284       .  S
C434        O472   1.270       .  A
C434        O440   1.277       .  A
C434        C650   1.444   1_655  S
O435        C442   1.270       .  A
H436        C449   1.082       .  S
C437        O451   1.236       .  S
C437        O452   1.271       .  A
C437        H462   1.082       .  S
O438        C461   1.269       .  A
O439       Mg453   2.165       .  S
O440       Mg470   2.327       .  S
C441        O454   1.275       .  A
C441        O446   1.276       .  A
C441        C661   1.447       .  S
C442        O469   1.274       .  A
C442        C660   1.445       .  S
Mg443       O450   2.158       .  S
Mg443       O451   2.162       .  S
Mg443       O444   2.293       .  S
Mg443       O445   2.304       .  S
Mg443       O472   2.270       .  S
O445        C449   1.271       .  A
O446       Mg453   2.318       .  S
O447        C466   1.269       .  A
O448        C468   1.276       .  A
O448       Mg464   2.317       .  S
O450       Mg464   2.166       .  S
O450        C461   1.234       .  S
O451       Mg470   2.164       .  S
O452       Mg464   2.305       .  S
Mg453       O469   2.307       .  S
O454       Mg470   2.296       .  S
H455        C460   1.082       .  S
O456       Mg464   2.158       .  S
O456        C459   1.235       .  S
H457        C459   1.082       .  S
H458        C461   1.081       .  S
O463       Mg470   2.302       .  S
C466        O471   1.277       .  A
C466        C652   1.445       .  S
O467        C468   1.276       .  A
C468        C653   1.449       .  S
C473        C728   1.446       .  S
C473        C474   1.405       .  A
C473        C478   1.404       .  A
C474        C744   1.450       .  S
C474        C475   1.400       .  A
C475        H480   1.085       .  S
C475        C476   1.406       .  A
C476        C669   1.449       .  S
C476        C477   1.417       .  A
C477        C656   1.456       .  S
C477        C478   1.408       .  A
C478        H479   1.085       .  S
C481        C776   1.458       .  S
C481        C482   1.413       .  A
C481        C486   1.408   1_455  A
C482        C816   1.447       .  S
C482        C483   1.401   1_455  A
C483        H488   1.086       .  S
C483        C484   1.401       .  A
C484        C680   1.452       .  S
C484        C485   1.415       .  A
C485        C664   1.454       .  S
C485        C486   1.410       .  A
C486        H487   1.085       .  S
C489        C820   1.458       .  S
C489        C490   1.410       .  A
C489        C494   1.407       .  A
C490        C761   1.449       .  S
C490        C491   1.407       .  A
C491        H496   1.084       .  S
C491        C492   1.407       .  A
C492        C657   1.456       .  S
C492        C493   1.412       .  A
C493        C708   1.452       .  S
C493        C494   1.409       .  A
C494        H495   1.084       .  S
C497        C760   1.447       .  S
C497        C498   1.410       .  A
C497        C502   1.406       .  A
C498        C780   1.452       .  S
C498        C499   1.401       .  A
C499        H504   1.085       .  S
C499        C500   1.403       .  A
C500        C704   1.444   1_565  S
C500        C501   1.413   1_565  A
C501        C676   1.456       .  S
C501        C502   1.406   1_545  A
C502        H503   1.085   1_565  S
O505       Mg507   2.136   1_455  S
O505       Mg513   2.152   1_554  S
O505        C540   1.234       .  S
C506        O519   1.234       .  S
C506        O543   1.269       .  A
C506        H545   1.081       .  S
Mg507       O536   2.177   1_554  S
Mg507       O551   2.311   1_554  S
Mg507       O547   2.236       .  S
Mg507       O518   2.295       .  S
O508       Mg550   2.174   1_554  S
O508       Mg533   2.170       .  S
O508        C529   1.235       .  S
O509        C540   1.268   1_545  A
O509       Mg533   2.294       .  S
C510        O512   1.277       .  A
C510        O524   1.269   1_565  A
C510        C734   1.447       .  S
O511        C539   1.270   1_455  A
O511       Mg513   2.303       .  S
O512       Mg544   2.320       .  S
Mg513       O519   2.136   1_565  S
Mg513       O527   2.245       .  S
Mg513       O515   2.280   1_556  S
C514        O552   1.265       .  A
C514        O520   1.274   1_654  A
C514        C709   1.434       .  S
O515        C522   1.269   1_565  A
H516        C529   1.081       .  S
C517        O531   1.234       .  S
C517        O532   1.269       .  A
C517        H542   1.081       .  S
O518        C541   1.268       .  A
O519       Mg533   2.158   1_556  S
O520       Mg550   2.312       .  S
C521        O534   1.268       .  A
C521        O526   1.272   1_556  A
C521        C722   1.422       .  S
C522        O549   1.275       .  A
C522        C736   1.444       .  S
Mg523       O530   2.133   1_545  S
Mg523       O531   2.156   1_554  S
Mg523       O524   2.281   1_554  S
Mg523       O525   2.300       .  S
Mg523       O552   2.237       .  S
O525        C529   1.270   1_655  A
O526       Mg533   2.281       .  S
O527        C546   1.266       .  A
O528        C548   1.273   1_556  A
O528       Mg544   2.291       .  S
O530       Mg544   2.153   1_554  S
O530        C541   1.234       .  S
O531       Mg550   2.141   1_655  S
O532       Mg544   2.299   1_545  S
Mg533       O549   2.310       .  S
O534       Mg550   2.242       .  S
H535        C540   1.081       .  S
O536       Mg544   2.176       .  S
O536        C539   1.236       .  S
H537        C539   1.081       .  S
H538        C541   1.081       .  S
O543       Mg550   2.297       .  S
C546        O551   1.274   1_455  A
C546        C712   1.437       .  S
O547        C548   1.268       .  A
C548        C723   1.423       .  S
O553       Mg555   2.158       .  S
O553       Mg561   2.163       .  S
O553        C588   1.234       .  S
C554        O567   1.235       .  S
C554        O591   1.268       .  A
C554        H593   1.081       .  S
Mg555       O584   2.163       .  S
Mg555       O599   2.260       .  S
Mg555       O595   2.268       .  S
Mg555       O566   2.289       .  S
O556       Mg598   2.157       .  S
O556       Mg581   2.141       .  S
O556        C577   1.237       .  S
O557        C588   1.268       .  A
O557       Mg581   2.298       .  S
C558        O560   1.273       .  A
C558        O572   1.279       .  A
C558        C756   1.447       .  S
O559        C587   1.271       .  A
O559       Mg561   2.302       .  S
O560       Mg592   2.279       .  S
Mg561       O567   2.150       .  S
Mg561       O575   2.286       .  S
Mg561       O563   2.321       .  S
C562        O600   1.270       .  A
C562        O568   1.266       .  A
C562        C810   1.420       .  S
O563        C570   1.277       .  A
H564        C577   1.082       .  S
C565        O579   1.234       .  S
C565        O580   1.270       .  A
C565        H590   1.081       .  S
O566        C589   1.268       .  A
O567       Mg581   2.166       .  S
O568       Mg598   2.250       .  S
C569        O582   1.272       .  A
C569        O574   1.274       .  A
C569        C770   1.450       .  S
C570        O597   1.270       .  A
C570        C753   1.437       .  S
Mg571       O578   2.137       .  S
Mg571       O579   2.169       .  S
Mg571       O572   2.336       .  S
Mg571       O573   2.305       .  S
Mg571       O600   2.261       .  S
O573        C577   1.271       .  A
O574       Mg581   2.316       .  S
O575        C594   1.273       .  A
O576        C596   1.275       .  A
O576       Mg592   2.318       .  S
O578       Mg592   2.157       .  S
O578        C589   1.235       .  S
O579       Mg598   2.173       .  S
O580       Mg592   2.305       .  S
Mg581       O597   2.255       .  S
O582       Mg598   2.295       .  S
H583        C588   1.081       .  S
O584       Mg592   2.147       .  S
O584        C587   1.236       .  S
H585        C587   1.082       .  S
H586        C589   1.081       .  S
O591       Mg598   2.293       .  S
C594        O599   1.267       .  A
C594        C811   1.431       .  S
O595        C596   1.269       .  A
C596        C771   1.442       .  S
O601       Mg603   2.122       .  S
O601       Mg609   2.154       .  S
O601        C636   1.234       .  S
C602        O615   1.236       .  S
C602        O639   1.270       .  A
C602        H641   1.081       .  S
Mg603       O632   2.154       .  S
Mg603       O647   2.284       .  S
Mg603       O643   2.223       .  S
Mg603       O614   2.305       .  S
O604       Mg646   2.149       .  S
O604       Mg629   2.139       .  S
O604        C625   1.234       .  S
O605        C636   1.267       .  A
O605       Mg629   2.289       .  S
C606        O608   1.268       .  A
C606        O620   1.275       .  A
C606        C689   1.429       .  S
O607        C635   1.270       .  A
O607       Mg609   2.302       .  S
O608       Mg640   2.239       .  S
Mg609       O615   2.162       .  S
Mg609       O623   2.307       .  S
Mg609       O611   2.300       .  S
C610        O648   1.277       .  A
C610        O616   1.269       .  A
C610        C651   1.445       .  S
O611        C618   1.274       .  A
H612        C625   1.081       .  S
C613        O627   1.234       .  S
C613        O628   1.268       .  A
C613        H638   1.081       .  S
O614        C637   1.271       .  A
O615       Mg629   2.171       .  S
O616       Mg646   2.281       .  S
C617        O630   1.267       .  A
C617        O622   1.273       .  A
C617        C666   1.434       .  S
C618        O645   1.269       .  A
C618        C691   1.427       .  S
Mg619       O626   2.173       .  S
Mg619       O627   2.163       .  S
Mg619       O620   2.308       .  S
Mg619       O621   2.294       .  S
Mg619       O648   2.316       .  S
O621        C625   1.268       .  A
O622       Mg629   2.303       .  S
O623        C642   1.275       .  A
O624        C644   1.273       .  A
O624       Mg640   2.308       .  S
O626       Mg640   2.171       .  S
O626        C637   1.236       .  S
O627       Mg646   2.139       .  S
O628       Mg640   2.295       .  S
Mg629       O645   2.243       .  S
O630       Mg646   2.246       .  S
H631        C636   1.081       .  S
O632       Mg640   2.146       .  S
O632        C635   1.235       .  S
H633        C635   1.081       .  S
H634        C637   1.081       .  S
O639       Mg646   2.299       .  S
C642        O647   1.269       .  A
C642        C649   1.444       .  S
O643        C644   1.263       .  A
C644        C668   1.430       .  S
C649        C650   1.212       .  T
C651        C652   1.212       .  T
C653        C654   1.214       .  T
C654        C655   1.426       .  S
C655        C656   1.214       .  T
C657        C658   1.213       .  T
C658        C659   1.423       .  S
C659        C660   1.212       .  T
C661        C662   1.213       .  T
C662        C663   1.423       .  S
C663        C664   1.213       .  T
C665        C666   1.206       .  T
C667        C668   1.204       .  T
C669        C670   1.210       .  T
C670        C671   1.419       .  S
C671        C672   1.210   1_565  T
C673        C674   1.214       .  T
C674        C675   1.425       .  S
C675        C676   1.214       .  T
C677        C678   1.212       .  T
C678        C679   1.422       .  S
C679        C680   1.212       .  T
C681        C682   1.209       .  T
C682        C683   1.418       .  S
C683        C684   1.209   1_455  T
C685        C686   1.218       .  T
C686        C687   1.431       .  S
C687        C688   1.218       .  T
C689        C690   1.202       .  T
C691        C692   1.201       .  T
C693        C694   1.208       .  T
C694        C695   1.416       .  S
C695        C696   1.208       .  T
C697        C698   1.205       .  T
C698        C699   1.411       .  S
C699        C700   1.206       .  T
C701        C702   1.206       .  T
C702        C703   1.413       .  S
C703        C704   1.206       .  T
C705        C706   1.210       .  T
C706        C707   1.419       .  S
C707        C708   1.210       .  T
C709        C710   1.205   1_554  T
C711        C712   1.207       .  T
C713        C714   1.210       .  T
C714        C715   1.419       .  S
C715        C716   1.210       .  T
C717        C718   1.216       .  T
C718        C719   1.428       .  S
C719        C720   1.215       .  T
C721        C722   1.199       .  T
C723        C724   1.199       .  T
C725        C726   1.206       .  T
C726        C727   1.412       .  S
C727        C728   1.206       .  T
C729        C730   1.208       .  T
C730        C731   1.416       .  S
C731        C732   1.208       .  T
C733        C734   1.214   1_545  T
C735        C736   1.212       .  T
C737        C738   1.216       .  T
C738        C739   1.428       .  S
C739        C740   1.216       .  T
C741        C742   1.208       .  T
C742        C743   1.416       .  S
C743        C744   1.208       .  T
C745        C746   1.211       .  T
C746        C747   1.421       .  S
C747        C748   1.212       .  T
C749        C750   1.206       .  T
C750        C751   1.412       .  S
C751        C752   1.205       .  T
C753        C754   1.207       .  T
C755        C756   1.213       .  T
C757        C758   1.208       .  T
C758        C759   1.415       .  S
C759        C760   1.208       .  T
C761        C762   1.208       .  T
C762        C763   1.415       .  S
C763        C764   1.208       .  T
C765        C766   1.203       .  T
C766        C767   1.407       .  S
C767        C768   1.203       .  T
C769        C770   1.215       .  T
C771        C772   1.210       .  T
C773        C774   1.215       .  T
C774        C775   1.426       .  S
C775        C776   1.215       .  T
C777        C778   1.210       .  T
C778        C779   1.419       .  S
C779        C780   1.210       .  T
C781        C782   1.213   1_455  T
C782        C783   1.424       .  S
C783        C784   1.213       .  T
C785        C786   1.214       .  T
C786        C787   1.426       .  S
C787        C788   1.214       .  T
C789        C790   1.213       .  T
C790        C791   1.423       .  S
C791        C792   1.213       .  T
C793        C794   1.211   1_565  T
C794        C795   1.420       .  S
C795        C796   1.211       .  T
C797        C798   1.206       .  T
C798        C799   1.412       .  S
C799        C800   1.205       .  T
C801        C802   1.212       .  T
C802        C803   1.422       .  S
C803        C804   1.212       .  T
C805        C806   1.211       .  T
C806        C807   1.421       .  S
C807        C808   1.211       .  T
C809        C810   1.198       .  T
C811        C812   1.204       .  T
C813        C814   1.208       .  T
C814        C815   1.416       .  S
C815        C816   1.208       .  T
C817        C818   1.213       .  T
C818        C819   1.424       .  S
C819        C820   1.213       .  T
C821        C822   1.207   1_455  T
C822        C823   1.415       .  S
C823        C824   1.208       .  T
C825        C826   1.215       .  T
C826        C827   1.427       .  S
C827        C828   1.215       .  T
